MODEL 1
REMARK VINA RESULT:    -7.693      0.000      0.000
REMARK INTER + INTRA:         -13.537
REMARK INTER:                 -11.966
REMARK INTRA:                  -1.571
REMARK UNBOUND:                -1.571
REMARK WARNING: 32 MAX_TORS EXCEEDED!!!
REMARK  52 active torsions:
REMARK  status: ('A' for Active; 'I' for Inactive)
REMARK    1  A    between atoms: C11_1  and  O11_2 
REMARK    2  A    between atoms: O11_2  and  C42_28 
REMARK    3  A    between atoms: C21_3  and  N21_4 
REMARK    4  A    between atoms: C51_10  and  C61_12 
REMARK    5  A    between atoms: C61_12  and  N61_13 
REMARK    6  A    between atoms: C12_17  and  N12_18 
REMARK    7  A    between atoms: C32_23  and  N32_24 
REMARK    8  A    between atoms: C52_29  and  O52_30 
REMARK    9  A    between atoms: C62_32  and  O62_33 
REMARK   10  A    between atoms: O62_33  and  C13_34 
REMARK   11  A    between atoms: C23_35  and  O23_36 
REMARK   12  A    between atoms: C33_38  and  N33_39 
REMARK   13  A    between atoms: C43_42  and  O43_43 
REMARK   14  A    between atoms: C11_49  and  O11_50 
REMARK   15  A    between atoms: O11_50  and  C42_76 
REMARK   16  A    between atoms: C21_51  and  N21_52 
REMARK   17  A    between atoms: C51_58  and  C61_60 
REMARK   18  A    between atoms: C61_60  and  N61_61 
REMARK   19  A    between atoms: C12_65  and  N12_66 
REMARK   20  A    between atoms: C32_71  and  N32_72 
REMARK   21  A    between atoms: C52_77  and  O52_78 
REMARK   22  A    between atoms: C62_80  and  O62_81 
REMARK   23  A    between atoms: O62_81  and  C13_82 
REMARK   24  A    between atoms: C23_83  and  O23_84 
REMARK   25  A    between atoms: C33_86  and  N33_87 
REMARK   26  A    between atoms: C43_89  and  O43_90 
REMARK   27  A    between atoms: C11_96  and  O11_97 
REMARK   28  A    between atoms: O11_97  and  C42_123 
REMARK   29  A    between atoms: C21_98  and  N21_99 
REMARK   30  A    between atoms: C51_105  and  C61_107 
REMARK   31  A    between atoms: C61_107  and  N61_108 
REMARK   32  A    between atoms: C12_112  and  N12_113 
REMARK   33  A    between atoms: C32_118  and  N32_119 
REMARK   34  A    between atoms: C52_124  and  O52_125 
REMARK   35  A    between atoms: C62_127  and  O62_128 
REMARK   36  A    between atoms: O62_128  and  C13_129 
REMARK   37  A    between atoms: C23_130  and  O23_131 
REMARK   38  A    between atoms: C33_133  and  N33_134 
REMARK   39  A    between atoms: C43_136  and  O43_137 
REMARK   40  A    between atoms: C11_143  and  O11_144 
REMARK   41  A    between atoms: O11_144  and  C42_170 
REMARK   42  A    between atoms: C21_145  and  N21_146 
REMARK   43  A    between atoms: C51_152  and  C61_154 
REMARK   44  A    between atoms: C61_154  and  N61_155 
REMARK   45  A    between atoms: C12_159  and  N12_160 
REMARK   46  A    between atoms: C32_165  and  N32_166 
REMARK   47  A    between atoms: C52_171  and  O52_172 
REMARK   48  A    between atoms: C62_174  and  O62_175 
REMARK   49  A    between atoms: O62_175  and  C13_176 
REMARK   50  A    between atoms: C23_177  and  O23_178 
REMARK   51  A    between atoms: C33_180  and  N33_181 
REMARK   52  A    between atoms: C43_183  and  O43_184 
ROOT
HETATM    1  C12 LLL A1604     185.941  83.103 -17.783  1.00 47.31     0.217 C 
HETATM    2  C22 LLL A1604     186.108  84.446 -18.501  1.00 45.68     0.071 C 
HETATM    3  C32 LLL A1604     185.955  85.647 -17.565  1.00 50.23     0.217 C 
HETATM    4  C42 LLL A1604     186.865  85.534 -16.323  1.00 53.35     0.186 C 
HETATM    5  C52 LLL A1604     186.813  84.141 -15.684  1.00 51.56     0.180 C 
HETATM    6  C62 LLL A1604     186.982  83.000 -16.670  1.00 47.69     0.186 C 
ENDROOT
BRANCH   4   7
HETATM    7  O11 LLL A1604     186.341  86.523 -15.403  1.00 57.11    -0.349 OA
BRANCH   7   8
HETATM    8  C11 LLL A1604     185.591  86.123 -14.287  1.00 66.19     0.291 C 
HETATM    9  C21 LLL A1604     184.317  86.970 -14.179  1.00 67.43     0.238 C 
HETATM   10  C31 LLL A1604     184.600  88.407 -13.755  1.00 71.89     0.040 C 
HETATM   11  C41 LLL A1604     185.498  88.440 -12.518  1.00 71.39     0.036 C 
HETATM   12  C51 LLL A1604     186.742  87.596 -12.738  1.00 74.51     0.150 C 
HETATM   13  O51 LLL A1604     186.368  86.255 -13.096  1.00 67.26    -0.352 OA
BRANCH   9  14
HETATM   14  N21 LLL A1604     183.528  86.962 -15.422  1.00 70.18    -0.070 N 
ATOM     15 3H21 LLL A1604     183.903  87.626 -16.099  1.00  0.00     0.274 HD
ATOM     16 2H21 LLL A1604     183.674  86.097 -15.943  1.00  0.00     0.274 HD
ATOM     17 1H21 LLL A1604     182.535  87.127 -15.255  1.00  0.00     0.274 HD
ENDBRANCH   9  14
BRANCH  12  18
HETATM   18  C61 LLL A1604     187.632  87.503 -11.512  1.00 78.49     0.261 C 
BRANCH  18  19
HETATM   19  N61 LLL A1604     188.843  86.712 -11.745  1.00 77.35    -0.077 N 
ATOM     20 3H61 LLL A1604     189.378  86.603 -10.883  1.00  0.00     0.274 HD
ATOM     21 2H61 LLL A1604     188.611  85.734 -11.921  1.00  0.00     0.274 HD
ATOM     22 1H61 LLL A1604     189.426  87.089 -12.492  1.00  0.00     0.274 HD
ENDBRANCH  18  19
ENDBRANCH  12  18
ENDBRANCH   7   8
ENDBRANCH   4   7
BRANCH   3  23
HETATM   23  N32 LLL A1604     186.183  86.897 -18.307  1.00 47.88    -0.072 N 
ATOM     24 3H32 LLL A1604     186.371  87.682 -17.683  1.00  0.00     0.274 HD
ATOM     25 2H32 LLL A1604     187.072  86.887 -18.808  1.00  0.00     0.274 HD
ATOM     26 1H32 LLL A1604     185.397  87.084 -18.929  1.00  0.00     0.274 HD
ENDBRANCH   3  23
BRANCH   5  27
HETATM   27  O52 LLL A1604     187.901  84.025 -14.767  1.00 53.03    -0.390 OA
ATOM     28  H52 LLL A1604     188.026  83.105 -14.564  1.00  0.00     0.210 HD
ENDBRANCH   5  27
BRANCH   6  29
HETATM   29  O62 LLL A1604     186.806  81.772 -15.943  1.00 46.32    -0.349 OA
BRANCH  29  30
HETATM   30  C13 LLL A1604     185.740  81.602 -15.054  1.00 45.50     0.291 C 
HETATM   31  C23 LLL A1604     186.274  80.885 -13.818  1.00 49.71     0.198 C 
HETATM   32  C33 LLL A1604     186.681  79.447 -14.130  1.00 50.96     0.146 C 
HETATM   33  C43 LLL A1604     185.608  78.691 -14.953  1.00 47.44     0.098 C 
HETATM   34  C53 LLL A1604     185.097  79.543 -16.114  1.00 45.44     0.210 C 
HETATM   35  C83 LLL A1604     186.119  77.354 -15.479  1.00 50.41     0.050 C 
HETATM   36  O53 LLL A1604     184.711  80.865 -15.711  1.00 41.84    -0.356 OA
BRANCH  31  37
HETATM   37  O23 LLL A1604     187.399  81.574 -13.303  1.00 51.21    -0.388 OA
ATOM     38  H23 LLL A1604     188.179  81.042 -13.395  1.00  0.00     0.210 HD
ENDBRANCH  31  37
BRANCH  32  39
HETATM   39  N33 LLL A1604     186.947  78.773 -12.850  1.00 60.94    -0.416 N 
HETATM   40  C93 LLL A1604     188.304  78.270 -12.687  1.00 67.56     0.140 C 
ATOM     41  H33 LLL A1604     186.234  78.667 -12.129  1.00  0.00     0.153 HD
ENDBRANCH  32  39
BRANCH  33  42
HETATM   42  O43 LLL A1604     184.496  78.434 -14.075  1.00 43.75    -0.386 OA
ATOM     43  H43 LLL A1604     184.577  79.023 -13.334  1.00  0.00     0.210 HD
ENDBRANCH  33  42
ENDBRANCH  29  30
ENDBRANCH   6  29
BRANCH   1  44
HETATM   44  N12 LLL A1604     186.018  81.951 -18.698  1.00 40.62    -0.072 N 
ATOM     45 3H12 LLL A1604     185.102  81.737 -19.094  1.00  0.00     0.274 HD
ATOM     46 2H12 LLL A1604     186.514  82.197 -19.555  1.00  0.00     0.274 HD
ATOM     47 1H12 LLL A1604     186.428  81.125 -18.263  1.00  0.00     0.274 HD
ENDBRANCH   1  44
TORSDOF 52
ENDMDL
MODEL 2
REMARK VINA RESULT:    -7.629      1.594      2.552
REMARK INTER + INTRA:         -13.437
REMARK INTER:                 -11.812
REMARK INTRA:                  -1.625
REMARK UNBOUND:                -1.571
REMARK WARNING: 32 MAX_TORS EXCEEDED!!!
REMARK  52 active torsions:
REMARK  status: ('A' for Active; 'I' for Inactive)
REMARK    1  A    between atoms: C11_1  and  O11_2 
REMARK    2  A    between atoms: O11_2  and  C42_28 
REMARK    3  A    between atoms: C21_3  and  N21_4 
REMARK    4  A    between atoms: C51_10  and  C61_12 
REMARK    5  A    between atoms: C61_12  and  N61_13 
REMARK    6  A    between atoms: C12_17  and  N12_18 
REMARK    7  A    between atoms: C32_23  and  N32_24 
REMARK    8  A    between atoms: C52_29  and  O52_30 
REMARK    9  A    between atoms: C62_32  and  O62_33 
REMARK   10  A    between atoms: O62_33  and  C13_34 
REMARK   11  A    between atoms: C23_35  and  O23_36 
REMARK   12  A    between atoms: C33_38  and  N33_39 
REMARK   13  A    between atoms: C43_42  and  O43_43 
REMARK   14  A    between atoms: C11_49  and  O11_50 
REMARK   15  A    between atoms: O11_50  and  C42_76 
REMARK   16  A    between atoms: C21_51  and  N21_52 
REMARK   17  A    between atoms: C51_58  and  C61_60 
REMARK   18  A    between atoms: C61_60  and  N61_61 
REMARK   19  A    between atoms: C12_65  and  N12_66 
REMARK   20  A    between atoms: C32_71  and  N32_72 
REMARK   21  A    between atoms: C52_77  and  O52_78 
REMARK   22  A    between atoms: C62_80  and  O62_81 
REMARK   23  A    between atoms: O62_81  and  C13_82 
REMARK   24  A    between atoms: C23_83  and  O23_84 
REMARK   25  A    between atoms: C33_86  and  N33_87 
REMARK   26  A    between atoms: C43_89  and  O43_90 
REMARK   27  A    between atoms: C11_96  and  O11_97 
REMARK   28  A    between atoms: O11_97  and  C42_123 
REMARK   29  A    between atoms: C21_98  and  N21_99 
REMARK   30  A    between atoms: C51_105  and  C61_107 
REMARK   31  A    between atoms: C61_107  and  N61_108 
REMARK   32  A    between atoms: C12_112  and  N12_113 
REMARK   33  A    between atoms: C32_118  and  N32_119 
REMARK   34  A    between atoms: C52_124  and  O52_125 
REMARK   35  A    between atoms: C62_127  and  O62_128 
REMARK   36  A    between atoms: O62_128  and  C13_129 
REMARK   37  A    between atoms: C23_130  and  O23_131 
REMARK   38  A    between atoms: C33_133  and  N33_134 
REMARK   39  A    between atoms: C43_136  and  O43_137 
REMARK   40  A    between atoms: C11_143  and  O11_144 
REMARK   41  A    between atoms: O11_144  and  C42_170 
REMARK   42  A    between atoms: C21_145  and  N21_146 
REMARK   43  A    between atoms: C51_152  and  C61_154 
REMARK   44  A    between atoms: C61_154  and  N61_155 
REMARK   45  A    between atoms: C12_159  and  N12_160 
REMARK   46  A    between atoms: C32_165  and  N32_166 
REMARK   47  A    between atoms: C52_171  and  O52_172 
REMARK   48  A    between atoms: C62_174  and  O62_175 
REMARK   49  A    between atoms: O62_175  and  C13_176 
REMARK   50  A    between atoms: C23_177  and  O23_178 
REMARK   51  A    between atoms: C33_180  and  N33_181 
REMARK   52  A    between atoms: C43_183  and  O43_184 
ROOT
HETATM    1  C12 LLL A1604     185.880  82.441 -17.762  1.00 47.31     0.217 C 
HETATM    2  C22 LLL A1604     186.157  83.705 -18.581  1.00 45.68     0.071 C 
HETATM    3  C32 LLL A1604     186.366  84.948 -17.713  1.00 50.23     0.217 C 
HETATM    4  C42 LLL A1604     187.431  84.718 -16.619  1.00 53.35     0.186 C 
HETATM    5  C52 LLL A1604     187.245  83.381 -15.891  1.00 51.56     0.180 C 
HETATM    6  C62 LLL A1604     187.054  82.193 -16.816  1.00 47.69     0.186 C 
ENDROOT
BRANCH   4   7
HETATM    7  O11 LLL A1604     187.240  85.818 -15.695  1.00 57.11    -0.349 OA
BRANCH   7   8
HETATM    8  C11 LLL A1604     188.345  86.538 -15.216  1.00 66.19     0.291 C 
HETATM    9  C21 LLL A1604     188.025  87.136 -13.841  1.00 67.43     0.238 C 
HETATM   10  C31 LLL A1604     187.026  88.286 -13.916  1.00 71.89     0.040 C 
HETATM   11  C41 LLL A1604     187.451  89.304 -14.975  1.00 71.39     0.036 C 
HETATM   12  C51 LLL A1604     187.715  88.615 -16.304  1.00 74.51     0.150 C 
HETATM   13  O51 LLL A1604     188.694  87.577 -16.131  1.00 67.26    -0.352 OA
BRANCH   9  14
HETATM   14  N21 LLL A1604     187.551  86.124 -12.882  1.00 70.18    -0.070 N 
ATOM     15 3H21 LLL A1604     188.033  86.211 -11.988  1.00  0.00     0.274 HD
ATOM     16 2H21 LLL A1604     186.600  86.327 -12.576  1.00  0.00     0.274 HD
ATOM     17 1H21 LLL A1604     187.624  85.175 -13.249  1.00  0.00     0.274 HD
ENDBRANCH   9  14
BRANCH  12  18
HETATM   18  C61 LLL A1604     188.238  89.554 -17.376  1.00 78.49     0.261 C 
BRANCH  18  19
HETATM   19  N61 LLL A1604     187.479  89.471 -18.626  1.00 77.35    -0.077 N 
ATOM     20 3H61 LLL A1604     187.327  88.499 -18.896  1.00  0.00     0.274 HD
ATOM     21 2H61 LLL A1604     186.510  89.756 -18.484  1.00  0.00     0.274 HD
ATOM     22 1H61 LLL A1604     187.907  89.998 -19.387  1.00  0.00     0.274 HD
ENDBRANCH  18  19
ENDBRANCH  12  18
ENDBRANCH   7   8
ENDBRANCH   4   7
BRANCH   3  23
HETATM   23  N32 LLL A1604     186.683  86.109 -18.559  1.00 47.88    -0.072 N 
ATOM     24 3H32 LLL A1604     187.024  85.829 -19.478  1.00  0.00     0.274 HD
ATOM     25 2H32 LLL A1604     185.843  86.606 -18.856  1.00  0.00     0.274 HD
ATOM     26 1H32 LLL A1604     187.340  86.724 -18.079  1.00  0.00     0.274 HD
ENDBRANCH   3  23
BRANCH   5  27
HETATM   27  O52 LLL A1604     188.430  83.105 -15.145  1.00 53.03    -0.390 OA
ATOM     28  H52 LLL A1604     188.609  83.848 -14.581  1.00  0.00     0.210 HD
ENDBRANCH   5  27
BRANCH   6  29
HETATM   29  O62 LLL A1604     186.788  81.044 -15.994  1.00 46.32    -0.349 OA
BRANCH  29  30
HETATM   30  C13 LLL A1604     185.744  81.043 -15.064  1.00 45.50     0.291 C 
HETATM   31  C23 LLL A1604     186.270  80.428 -13.772  1.00 49.71     0.198 C 
HETATM   32  C33 LLL A1604     186.573  78.940 -13.936  1.00 50.96     0.146 C 
HETATM   33  C43 LLL A1604     185.426  78.175 -14.643  1.00 47.44     0.098 C 
HETATM   34  C53 LLL A1604     184.934  78.931 -15.877  1.00 45.44     0.210 C 
HETATM   35  C83 LLL A1604     185.832  76.758 -15.034  1.00 50.41     0.050 C 
HETATM   36  O53 LLL A1604     184.648  80.312 -15.610  1.00 41.84    -0.356 OA
BRANCH  31  37
HETATM   37  O23 LLL A1604     187.453  81.090 -13.363  1.00 51.21    -0.388 OA
ATOM     38  H23 LLL A1604     187.364  81.399 -12.470  1.00  0.00     0.210 HD
ENDBRANCH  31  37
BRANCH  32  39
HETATM   39  N33 LLL A1604     186.836  78.391 -12.597  1.00 60.94    -0.416 N 
HETATM   40  C93 LLL A1604     188.166  77.826 -12.412  1.00 67.56     0.140 C 
ATOM     41  H33 LLL A1604     186.139  78.404 -11.853  1.00  0.00     0.153 HD
ENDBRANCH  32  39
BRANCH  33  42
HETATM   42  O43 LLL A1604     184.329  78.090 -13.715  1.00 43.75    -0.386 OA
ATOM     43  H43 LLL A1604     183.722  78.788 -13.929  1.00  0.00     0.210 HD
ENDBRANCH  33  42
ENDBRANCH  29  30
ENDBRANCH   6  29
BRANCH   1  44
HETATM   44  N12 LLL A1604     185.609  81.262 -18.602  1.00 40.62    -0.072 N 
ATOM     45 3H12 LLL A1604     184.943  80.636 -18.149  1.00  0.00     0.274 HD
ATOM     46 2H12 LLL A1604     185.061  81.518 -19.424  1.00  0.00     0.274 HD
ATOM     47 1H12 LLL A1604     186.456  80.761 -18.869  1.00  0.00     0.274 HD
ENDBRANCH   1  44
TORSDOF 52
ENDMDL
MODEL 3
REMARK VINA RESULT:    -7.447      2.218      7.257
REMARK INTER + INTRA:         -13.153
REMARK INTER:                 -12.423
REMARK INTRA:                  -0.730
REMARK UNBOUND:                -1.571
REMARK WARNING: 32 MAX_TORS EXCEEDED!!!
REMARK  52 active torsions:
REMARK  status: ('A' for Active; 'I' for Inactive)
REMARK    1  A    between atoms: C11_1  and  O11_2 
REMARK    2  A    between atoms: O11_2  and  C42_28 
REMARK    3  A    between atoms: C21_3  and  N21_4 
REMARK    4  A    between atoms: C51_10  and  C61_12 
REMARK    5  A    between atoms: C61_12  and  N61_13 
REMARK    6  A    between atoms: C12_17  and  N12_18 
REMARK    7  A    between atoms: C32_23  and  N32_24 
REMARK    8  A    between atoms: C52_29  and  O52_30 
REMARK    9  A    between atoms: C62_32  and  O62_33 
REMARK   10  A    between atoms: O62_33  and  C13_34 
REMARK   11  A    between atoms: C23_35  and  O23_36 
REMARK   12  A    between atoms: C33_38  and  N33_39 
REMARK   13  A    between atoms: C43_42  and  O43_43 
REMARK   14  A    between atoms: C11_49  and  O11_50 
REMARK   15  A    between atoms: O11_50  and  C42_76 
REMARK   16  A    between atoms: C21_51  and  N21_52 
REMARK   17  A    between atoms: C51_58  and  C61_60 
REMARK   18  A    between atoms: C61_60  and  N61_61 
REMARK   19  A    between atoms: C12_65  and  N12_66 
REMARK   20  A    between atoms: C32_71  and  N32_72 
REMARK   21  A    between atoms: C52_77  and  O52_78 
REMARK   22  A    between atoms: C62_80  and  O62_81 
REMARK   23  A    between atoms: O62_81  and  C13_82 
REMARK   24  A    between atoms: C23_83  and  O23_84 
REMARK   25  A    between atoms: C33_86  and  N33_87 
REMARK   26  A    between atoms: C43_89  and  O43_90 
REMARK   27  A    between atoms: C11_96  and  O11_97 
REMARK   28  A    between atoms: O11_97  and  C42_123 
REMARK   29  A    between atoms: C21_98  and  N21_99 
REMARK   30  A    between atoms: C51_105  and  C61_107 
REMARK   31  A    between atoms: C61_107  and  N61_108 
REMARK   32  A    between atoms: C12_112  and  N12_113 
REMARK   33  A    between atoms: C32_118  and  N32_119 
REMARK   34  A    between atoms: C52_124  and  O52_125 
REMARK   35  A    between atoms: C62_127  and  O62_128 
REMARK   36  A    between atoms: O62_128  and  C13_129 
REMARK   37  A    between atoms: C23_130  and  O23_131 
REMARK   38  A    between atoms: C33_133  and  N33_134 
REMARK   39  A    between atoms: C43_136  and  O43_137 
REMARK   40  A    between atoms: C11_143  and  O11_144 
REMARK   41  A    between atoms: O11_144  and  C42_170 
REMARK   42  A    between atoms: C21_145  and  N21_146 
REMARK   43  A    between atoms: C51_152  and  C61_154 
REMARK   44  A    between atoms: C61_154  and  N61_155 
REMARK   45  A    between atoms: C12_159  and  N12_160 
REMARK   46  A    between atoms: C32_165  and  N32_166 
REMARK   47  A    between atoms: C52_171  and  O52_172 
REMARK   48  A    between atoms: C62_174  and  O62_175 
REMARK   49  A    between atoms: O62_175  and  C13_176 
REMARK   50  A    between atoms: C23_177  and  O23_178 
REMARK   51  A    between atoms: C33_180  and  N33_181 
REMARK   52  A    between atoms: C43_183  and  O43_184 
ROOT
HETATM    1  C12 LLL A1604     184.628  82.542 -16.766  1.00 47.31     0.217 C 
HETATM    2  C22 LLL A1604     184.376  81.144 -17.337  1.00 45.68     0.071 C 
HETATM    3  C32 LLL A1604     185.493  80.151 -17.006  1.00 50.23     0.217 C 
HETATM    4  C42 LLL A1604     185.806  80.115 -15.494  1.00 53.35     0.186 C 
HETATM    5  C52 LLL A1604     185.915  81.518 -14.885  1.00 51.56     0.180 C 
HETATM    6  C62 LLL A1604     184.768  82.443 -15.248  1.00 47.69     0.186 C 
ENDROOT
BRANCH   4   7
HETATM    7  O11 LLL A1604     187.082  79.434 -15.409  1.00 57.11    -0.349 OA
BRANCH   7   8
HETATM    8  C11 LLL A1604     188.140  80.005 -14.685  1.00 66.19     0.291 C 
HETATM    9  C21 LLL A1604     189.416  80.009 -15.534  1.00 67.43     0.238 C 
HETATM   10  C31 LLL A1604     190.002  78.614 -15.725  1.00 71.89     0.040 C 
HETATM   11  C41 LLL A1604     190.129  77.893 -14.382  1.00 71.39     0.036 C 
HETATM   12  C51 LLL A1604     188.807  77.920 -13.634  1.00 74.51     0.150 C 
HETATM   13  O51 LLL A1604     188.361  79.277 -13.475  1.00 67.26    -0.352 OA
BRANCH   9  14
HETATM   14  N21 LLL A1604     189.218  80.650 -16.845  1.00 70.18    -0.070 N 
ATOM     15 3H21 LLL A1604     188.648  81.492 -16.760  1.00  0.00     0.274 HD
ATOM     16 2H21 LLL A1604     190.083  81.072 -17.181  1.00  0.00     0.274 HD
ATOM     17 1H21 LLL A1604     188.828  80.011 -17.537  1.00  0.00     0.274 HD
ENDBRANCH   9  14
BRANCH  12  18
HETATM   18  C61 LLL A1604     188.886  77.307 -12.247  1.00 78.49     0.261 C 
BRANCH  18  19
HETATM   19  N61 LLL A1604     190.168  76.648 -11.988  1.00 77.35    -0.077 N 
ATOM     20 3H61 LLL A1604     190.171  75.698 -12.359  1.00  0.00     0.274 HD
ATOM     21 2H61 LLL A1604     190.909  77.053 -12.561  1.00  0.00     0.274 HD
ATOM     22 1H61 LLL A1604     190.426  76.655 -11.000  1.00  0.00     0.274 HD
ENDBRANCH  18  19
ENDBRANCH  12  18
ENDBRANCH   7   8
ENDBRANCH   4   7
BRANCH   3  23
HETATM   23  N32 LLL A1604     185.159  78.820 -17.534  1.00 47.88    -0.072 N 
ATOM     24 3H32 LLL A1604     184.311  78.836 -18.101  1.00  0.00     0.274 HD
ATOM     25 2H32 LLL A1604     185.816  78.520 -18.256  1.00  0.00     0.274 HD
ATOM     26 1H32 LLL A1604     185.096  78.145 -16.772  1.00  0.00     0.274 HD
ENDBRANCH   3  23
BRANCH   5  27
HETATM   27  O52 LLL A1604     185.879  81.395 -13.463  1.00 53.03    -0.390 OA
ATOM     28  H52 LLL A1604     186.227  82.194 -13.084  1.00  0.00     0.210 HD
ENDBRANCH   5  27
BRANCH   6  29
HETATM   29  O62 LLL A1604     185.065  83.736 -14.695  1.00 46.32    -0.349 OA
BRANCH  29  30
HETATM   30  C13 LLL A1604     186.079  84.538 -15.229  1.00 45.50     0.291 C 
HETATM   31  C23 LLL A1604     186.958  85.008 -14.076  1.00 49.71     0.198 C 
HETATM   32  C33 LLL A1604     186.216  85.976 -13.156  1.00 50.96     0.146 C 
HETATM   33  C43 LLL A1604     185.464  87.080 -13.940  1.00 47.44     0.098 C 
HETATM   34  C53 LLL A1604     184.684  86.492 -15.117  1.00 45.44     0.210 C 
HETATM   35  C83 LLL A1604     184.523  87.883 -13.048  1.00 50.41     0.050 C 
HETATM   36  O53 LLL A1604     185.479  85.622 -15.935  1.00 41.84    -0.356 OA
BRANCH  31  37
HETATM   37  O23 LLL A1604     187.393  83.898 -13.311  1.00 51.21    -0.388 OA
ATOM     38  H23 LLL A1604     186.907  83.851 -12.497  1.00  0.00     0.210 HD
ENDBRANCH  31  37
BRANCH  32  39
HETATM   39  N33 LLL A1604     187.203  86.554 -12.232  1.00 60.94    -0.416 N 
HETATM   40  C93 LLL A1604     188.538  86.730 -12.785  1.00 67.56     0.140 C 
ATOM     41  H33 LLL A1604     186.970  86.813 -11.273  1.00  0.00     0.153 HD
ENDBRANCH  32  39
BRANCH  33  42
HETATM   42  O43 LLL A1604     186.453  87.978 -14.476  1.00 43.75    -0.386 OA
ATOM     43  H43 LLL A1604     186.529  88.709 -13.873  1.00  0.00     0.210 HD
ENDBRANCH  33  42
ENDBRANCH  29  30
ENDBRANCH   6  29
BRANCH   1  44
HETATM   44  N12 LLL A1604     183.588  83.513 -17.147  1.00 40.62    -0.072 N 
ATOM     45 3H12 LLL A1604     183.935  84.469 -17.071  1.00  0.00     0.274 HD
ATOM     46 2H12 LLL A1604     183.409  83.481 -18.151  1.00  0.00     0.274 HD
ATOM     47 1H12 LLL A1604     182.723  83.396 -16.618  1.00  0.00     0.274 HD
ENDBRANCH   1  44
TORSDOF 52
ENDMDL
MODEL 4
REMARK VINA RESULT:    -7.353      2.511      7.340
REMARK INTER + INTRA:         -13.008
REMARK INTER:                 -11.562
REMARK INTRA:                  -1.446
REMARK UNBOUND:                -1.571
REMARK WARNING: 32 MAX_TORS EXCEEDED!!!
REMARK  52 active torsions:
REMARK  status: ('A' for Active; 'I' for Inactive)
REMARK    1  A    between atoms: C11_1  and  O11_2 
REMARK    2  A    between atoms: O11_2  and  C42_28 
REMARK    3  A    between atoms: C21_3  and  N21_4 
REMARK    4  A    between atoms: C51_10  and  C61_12 
REMARK    5  A    between atoms: C61_12  and  N61_13 
REMARK    6  A    between atoms: C12_17  and  N12_18 
REMARK    7  A    between atoms: C32_23  and  N32_24 
REMARK    8  A    between atoms: C52_29  and  O52_30 
REMARK    9  A    between atoms: C62_32  and  O62_33 
REMARK   10  A    between atoms: O62_33  and  C13_34 
REMARK   11  A    between atoms: C23_35  and  O23_36 
REMARK   12  A    between atoms: C33_38  and  N33_39 
REMARK   13  A    between atoms: C43_42  and  O43_43 
REMARK   14  A    between atoms: C11_49  and  O11_50 
REMARK   15  A    between atoms: O11_50  and  C42_76 
REMARK   16  A    between atoms: C21_51  and  N21_52 
REMARK   17  A    between atoms: C51_58  and  C61_60 
REMARK   18  A    between atoms: C61_60  and  N61_61 
REMARK   19  A    between atoms: C12_65  and  N12_66 
REMARK   20  A    between atoms: C32_71  and  N32_72 
REMARK   21  A    between atoms: C52_77  and  O52_78 
REMARK   22  A    between atoms: C62_80  and  O62_81 
REMARK   23  A    between atoms: O62_81  and  C13_82 
REMARK   24  A    between atoms: C23_83  and  O23_84 
REMARK   25  A    between atoms: C33_86  and  N33_87 
REMARK   26  A    between atoms: C43_89  and  O43_90 
REMARK   27  A    between atoms: C11_96  and  O11_97 
REMARK   28  A    between atoms: O11_97  and  C42_123 
REMARK   29  A    between atoms: C21_98  and  N21_99 
REMARK   30  A    between atoms: C51_105  and  C61_107 
REMARK   31  A    between atoms: C61_107  and  N61_108 
REMARK   32  A    between atoms: C12_112  and  N12_113 
REMARK   33  A    between atoms: C32_118  and  N32_119 
REMARK   34  A    between atoms: C52_124  and  O52_125 
REMARK   35  A    between atoms: C62_127  and  O62_128 
REMARK   36  A    between atoms: O62_128  and  C13_129 
REMARK   37  A    between atoms: C23_130  and  O23_131 
REMARK   38  A    between atoms: C33_133  and  N33_134 
REMARK   39  A    between atoms: C43_136  and  O43_137 
REMARK   40  A    between atoms: C11_143  and  O11_144 
REMARK   41  A    between atoms: O11_144  and  C42_170 
REMARK   42  A    between atoms: C21_145  and  N21_146 
REMARK   43  A    between atoms: C51_152  and  C61_154 
REMARK   44  A    between atoms: C61_154  and  N61_155 
REMARK   45  A    between atoms: C12_159  and  N12_160 
REMARK   46  A    between atoms: C32_165  and  N32_166 
REMARK   47  A    between atoms: C52_171  and  O52_172 
REMARK   48  A    between atoms: C62_174  and  O62_175 
REMARK   49  A    between atoms: O62_175  and  C13_176 
REMARK   50  A    between atoms: C23_177  and  O23_178 
REMARK   51  A    between atoms: C33_180  and  N33_181 
REMARK   52  A    between atoms: C43_183  and  O43_184 
ROOT
HETATM    1  C12 LLL A1604     185.012  82.656 -16.018  1.00 47.31     0.217 C 
HETATM    2  C22 LLL A1604     184.277  81.312 -16.020  1.00 45.68     0.071 C 
HETATM    3  C32 LLL A1604     185.191  80.129 -15.691  1.00 50.23     0.217 C 
HETATM    4  C42 LLL A1604     185.986  80.356 -14.387  1.00 53.35     0.186 C 
HETATM    5  C52 LLL A1604     186.604  81.757 -14.314  1.00 51.56     0.180 C 
HETATM    6  C62 LLL A1604     185.637  82.880 -14.642  1.00 47.69     0.186 C 
ENDROOT
BRANCH   4   7
HETATM    7  O11 LLL A1604     187.031  79.352 -14.424  1.00 57.11    -0.349 OA
BRANCH   7   8
HETATM    8  C11 LLL A1604     187.706  79.081 -15.624  1.00 66.19     0.291 C 
HETATM    9  C21 LLL A1604     188.409  77.721 -15.534  1.00 67.43     0.238 C 
HETATM   10  C31 LLL A1604     189.613  77.740 -14.598  1.00 71.89     0.040 C 
HETATM   11  C41 LLL A1604     190.534  78.916 -14.924  1.00 71.39     0.036 C 
HETATM   12  C51 LLL A1604     189.748  80.216 -14.961  1.00 74.51     0.150 C 
HETATM   13  O51 LLL A1604     188.662  80.107 -15.897  1.00 67.26    -0.352 OA
BRANCH   9  14
HETATM   14  N21 LLL A1604     187.491  76.637 -15.145  1.00 70.18    -0.070 N 
ATOM     15 3H21 LLL A1604     187.765  75.752 -15.572  1.00  0.00     0.274 HD
ATOM     16 2H21 LLL A1604     187.611  76.389 -14.163  1.00  0.00     0.274 HD
ATOM     17 1H21 LLL A1604     186.516  76.858 -15.351  1.00  0.00     0.274 HD
ENDBRANCH   9  14
BRANCH  12  18
HETATM   18  C61 LLL A1604     190.583  81.414 -15.377  1.00 78.49     0.261 C 
BRANCH  18  19
HETATM   19  N61 LLL A1604     191.577  81.087 -16.401  1.00 77.35    -0.077 N 
ATOM     20 3H61 LLL A1604     192.511  81.028 -15.996  1.00  0.00     0.274 HD
ATOM     21 2H61 LLL A1604     191.472  80.122 -16.717  1.00  0.00     0.274 HD
ATOM     22 1H61 LLL A1604     191.562  81.733 -17.191  1.00  0.00     0.274 HD
ENDBRANCH  18  19
ENDBRANCH  12  18
ENDBRANCH   7   8
ENDBRANCH   4   7
BRANCH   3  23
HETATM   23  N32 LLL A1604     184.412  78.882 -15.655  1.00 47.88    -0.072 N 
ATOM     24 3H32 LLL A1604     183.718  78.845 -16.401  1.00  0.00     0.274 HD
ATOM     25 2H32 LLL A1604     184.971  78.074 -15.929  1.00  0.00     0.274 HD
ATOM     26 1H32 LLL A1604     183.989  78.760 -14.735  1.00  0.00     0.274 HD
ENDBRANCH   3  23
BRANCH   5  27
HETATM   27  O52 LLL A1604     187.030  81.993 -12.972  1.00 53.03    -0.390 OA
ATOM     28  H52 LLL A1604     186.732  81.270 -12.431  1.00  0.00     0.210 HD
ENDBRANCH   5  27
BRANCH   6  29
HETATM   29  O62 LLL A1604     186.383  84.109 -14.634  1.00 46.32    -0.349 OA
BRANCH  29  30
HETATM   30  C13 LLL A1604     187.530  84.265 -15.418  1.00 45.50     0.291 C 
HETATM   31  C23 LLL A1604     188.620  84.864 -14.536  1.00 49.71     0.198 C 
HETATM   32  C33 LLL A1604     188.294  86.300 -14.130  1.00 50.96     0.146 C 
HETATM   33  C43 LLL A1604     187.829  87.165 -15.328  1.00 47.44     0.098 C 
HETATM   34  C53 LLL A1604     186.796  86.424 -16.179  1.00 45.44     0.210 C 
HETATM   35  C83 LLL A1604     187.263  88.510 -14.884  1.00 50.41     0.050 C 
HETATM   36  O53 LLL A1604     187.211  85.097 -16.532  1.00 41.84    -0.356 OA
BRANCH  31  37
HETATM   37  O23 LLL A1604     188.780  84.086 -13.364  1.00 51.21    -0.388 OA
ATOM     38  H23 LLL A1604     189.680  84.130 -13.062  1.00  0.00     0.210 HD
ENDBRANCH  31  37
BRANCH  32  39
HETATM   39  N33 LLL A1604     189.495  86.866 -13.496  1.00 60.94    -0.416 N 
HETATM   40  C93 LLL A1604     189.330  87.263 -12.105  1.00 67.56     0.140 C 
ATOM     41  H33 LLL A1604     190.378  86.972 -13.995  1.00  0.00     0.153 HD
ENDBRANCH  32  39
BRANCH  33  42
HETATM   42  O43 LLL A1604     188.981  87.411 -16.154  1.00 43.75    -0.386 OA
ATOM     43  H43 LLL A1604     188.688  87.909 -16.909  1.00  0.00     0.210 HD
ENDBRANCH  33  42
ENDBRANCH  29  30
ENDBRANCH   6  29
BRANCH   1  44
HETATM   44  N12 LLL A1604     184.146  83.783 -16.405  1.00 40.62    -0.072 N 
ATOM     45 3H12 LLL A1604     184.111  83.884 -17.419  1.00  0.00     0.274 HD
ATOM     46 2H12 LLL A1604     183.165  83.567 -16.225  1.00  0.00     0.274 HD
ATOM     47 1H12 LLL A1604     184.415  84.661 -15.960  1.00  0.00     0.274 HD
ENDBRANCH   1  44
TORSDOF 52
ENDMDL
MODEL 5
REMARK VINA RESULT:    -7.310      2.460      7.647
REMARK INTER + INTRA:         -12.941
REMARK INTER:                 -11.834
REMARK INTRA:                  -1.107
REMARK UNBOUND:                -1.571
REMARK WARNING: 32 MAX_TORS EXCEEDED!!!
REMARK  52 active torsions:
REMARK  status: ('A' for Active; 'I' for Inactive)
REMARK    1  A    between atoms: C11_1  and  O11_2 
REMARK    2  A    between atoms: O11_2  and  C42_28 
REMARK    3  A    between atoms: C21_3  and  N21_4 
REMARK    4  A    between atoms: C51_10  and  C61_12 
REMARK    5  A    between atoms: C61_12  and  N61_13 
REMARK    6  A    between atoms: C12_17  and  N12_18 
REMARK    7  A    between atoms: C32_23  and  N32_24 
REMARK    8  A    between atoms: C52_29  and  O52_30 
REMARK    9  A    between atoms: C62_32  and  O62_33 
REMARK   10  A    between atoms: O62_33  and  C13_34 
REMARK   11  A    between atoms: C23_35  and  O23_36 
REMARK   12  A    between atoms: C33_38  and  N33_39 
REMARK   13  A    between atoms: C43_42  and  O43_43 
REMARK   14  A    between atoms: C11_49  and  O11_50 
REMARK   15  A    between atoms: O11_50  and  C42_76 
REMARK   16  A    between atoms: C21_51  and  N21_52 
REMARK   17  A    between atoms: C51_58  and  C61_60 
REMARK   18  A    between atoms: C61_60  and  N61_61 
REMARK   19  A    between atoms: C12_65  and  N12_66 
REMARK   20  A    between atoms: C32_71  and  N32_72 
REMARK   21  A    between atoms: C52_77  and  O52_78 
REMARK   22  A    between atoms: C62_80  and  O62_81 
REMARK   23  A    between atoms: O62_81  and  C13_82 
REMARK   24  A    between atoms: C23_83  and  O23_84 
REMARK   25  A    between atoms: C33_86  and  N33_87 
REMARK   26  A    between atoms: C43_89  and  O43_90 
REMARK   27  A    between atoms: C11_96  and  O11_97 
REMARK   28  A    between atoms: O11_97  and  C42_123 
REMARK   29  A    between atoms: C21_98  and  N21_99 
REMARK   30  A    between atoms: C51_105  and  C61_107 
REMARK   31  A    between atoms: C61_107  and  N61_108 
REMARK   32  A    between atoms: C12_112  and  N12_113 
REMARK   33  A    between atoms: C32_118  and  N32_119 
REMARK   34  A    between atoms: C52_124  and  O52_125 
REMARK   35  A    between atoms: C62_127  and  O62_128 
REMARK   36  A    between atoms: O62_128  and  C13_129 
REMARK   37  A    between atoms: C23_130  and  O23_131 
REMARK   38  A    between atoms: C33_133  and  N33_134 
REMARK   39  A    between atoms: C43_136  and  O43_137 
REMARK   40  A    between atoms: C11_143  and  O11_144 
REMARK   41  A    between atoms: O11_144  and  C42_170 
REMARK   42  A    between atoms: C21_145  and  N21_146 
REMARK   43  A    between atoms: C51_152  and  C61_154 
REMARK   44  A    between atoms: C61_154  and  N61_155 
REMARK   45  A    between atoms: C12_159  and  N12_160 
REMARK   46  A    between atoms: C32_165  and  N32_166 
REMARK   47  A    between atoms: C52_171  and  O52_172 
REMARK   48  A    between atoms: C62_174  and  O62_175 
REMARK   49  A    between atoms: O62_175  and  C13_176 
REMARK   50  A    between atoms: C23_177  and  O23_178 
REMARK   51  A    between atoms: C33_180  and  N33_181 
REMARK   52  A    between atoms: C43_183  and  O43_184 
ROOT
HETATM    1  C12 LLL A1604     184.605  82.543 -16.624  1.00 47.31     0.217 C 
HETATM    2  C22 LLL A1604     184.069  81.110 -16.567  1.00 45.68     0.071 C 
HETATM    3  C32 LLL A1604     185.135  80.087 -16.169  1.00 50.23     0.217 C 
HETATM    4  C42 LLL A1604     185.866  80.487 -14.869  1.00 53.35     0.186 C 
HETATM    5  C52 LLL A1604     186.277  81.964 -14.859  1.00 51.56     0.180 C 
HETATM    6  C62 LLL A1604     185.167  82.920 -15.254  1.00 47.69     0.186 C 
ENDROOT
BRANCH   4   7
HETATM    7  O11 LLL A1604     187.043  79.642 -14.845  1.00 57.11    -0.349 OA
BRANCH   7   8
HETATM    8  C11 LLL A1604     188.199  80.062 -14.170  1.00 66.19     0.291 C 
HETATM    9  C21 LLL A1604     189.396  80.060 -15.129  1.00 67.43     0.238 C 
HETATM   10  C31 LLL A1604     189.851  78.652 -15.500  1.00 71.89     0.040 C 
HETATM   11  C41 LLL A1604     190.033  77.794 -14.248  1.00 71.39     0.036 C 
HETATM   12  C51 LLL A1604     188.784  77.841 -13.382  1.00 74.51     0.150 C 
HETATM   13  O51 LLL A1604     188.463  79.204 -13.059  1.00 67.26    -0.352 OA
BRANCH   9  14
HETATM   14  N21 LLL A1604     189.140  80.840 -16.351  1.00 70.18    -0.070 N 
ATOM     15 3H21 LLL A1604     188.222  81.283 -16.318  1.00  0.00     0.274 HD
ATOM     16 2H21 LLL A1604     189.724  81.676 -16.382  1.00  0.00     0.274 HD
ATOM     17 1H21 LLL A1604     189.250  80.284 -17.199  1.00  0.00     0.274 HD
ENDBRANCH   9  14
BRANCH  12  18
HETATM   18  C61 LLL A1604     188.931  77.089 -12.071  1.00 78.49     0.261 C 
BRANCH  18  19
HETATM   19  N61 LLL A1604     190.278  76.549 -11.871  1.00 77.35    -0.077 N 
ATOM     20 3H61 LLL A1604     190.316  75.562 -12.125  1.00  0.00     0.274 HD
ATOM     21 2H61 LLL A1604     190.927  76.924 -12.564  1.00  0.00     0.274 HD
ATOM     22 1H61 LLL A1604     190.629  76.697 -10.924  1.00  0.00     0.274 HD
ENDBRANCH  18  19
ENDBRANCH  12  18
ENDBRANCH   7   8
ENDBRANCH   4   7
BRANCH   3  23
HETATM   23  N32 LLL A1604     184.540  78.745 -16.079  1.00 47.88    -0.072 N 
ATOM     24 3H32 LLL A1604     184.265  78.513 -15.125  1.00  0.00     0.274 HD
ATOM     25 2H32 LLL A1604     183.618  78.706 -16.515  1.00  0.00     0.274 HD
ATOM     26 1H32 LLL A1604     185.177  78.051 -16.472  1.00  0.00     0.274 HD
ENDBRANCH   3  23
BRANCH   5  27
HETATM   27  O52 LLL A1604     186.641  82.322 -13.526  1.00 53.03    -0.390 OA
ATOM     28  H52 LLL A1604     187.586  82.260 -13.446  1.00  0.00     0.210 HD
ENDBRANCH   5  27
BRANCH   6  29
HETATM   29  O62 LLL A1604     185.731  84.242 -15.300  1.00 46.32    -0.349 OA
BRANCH  29  30
HETATM   30  C13 LLL A1604     185.277  85.254 -14.450  1.00 45.50     0.291 C 
HETATM   31  C23 LLL A1604     185.165  86.535 -15.268  1.00 49.71     0.198 C 
HETATM   32  C33 LLL A1604     186.536  87.052 -15.700  1.00 50.96     0.146 C 
HETATM   33  C43 LLL A1604     187.558  87.068 -14.537  1.00 47.44     0.098 C 
HETATM   34  C53 LLL A1604     187.519  85.760 -13.746  1.00 45.44     0.210 C 
HETATM   35  C83 LLL A1604     188.979  87.336 -15.021  1.00 50.41     0.050 C 
HETATM   36  O53 LLL A1604     186.190  85.379 -13.361  1.00 41.84    -0.356 OA
BRANCH  31  37
HETATM   37  O23 LLL A1604     184.380  86.308 -16.424  1.00 51.21    -0.388 OA
ATOM     38  H23 LLL A1604     184.807  85.679 -16.992  1.00  0.00     0.210 HD
ENDBRANCH  31  37
BRANCH  32  39
HETATM   39  N33 LLL A1604     186.345  88.398 -16.263  1.00 60.94    -0.416 N 
HETATM   40  C93 LLL A1604     186.768  88.553 -17.648  1.00 67.56     0.140 C 
ATOM     41  H33 LLL A1604     185.947  89.166 -15.723  1.00  0.00     0.153 HD
ENDBRANCH  32  39
BRANCH  33  42
HETATM   42  O43 LLL A1604     187.178  88.131 -13.644  1.00 43.75    -0.386 OA
ATOM     43  H43 LLL A1604     186.532  88.662 -14.094  1.00  0.00     0.210 HD
ENDBRANCH  33  42
ENDBRANCH  29  30
ENDBRANCH   6  29
BRANCH   1  44
HETATM   44  N12 LLL A1604     183.595  83.516 -17.077  1.00 40.62    -0.072 N 
ATOM     45 3H12 LLL A1604     183.872  84.468 -16.837  1.00  0.00     0.274 HD
ATOM     46 2H12 LLL A1604     183.595  83.594 -18.094  1.00  0.00     0.274 HD
ATOM     47 1H12 LLL A1604     182.660  83.309 -16.725  1.00  0.00     0.274 HD
ENDBRANCH   1  44
TORSDOF 52
ENDMDL
MODEL 6
REMARK VINA RESULT:    -7.260      3.562      8.729
REMARK INTER + INTRA:         -12.863
REMARK INTER:                 -11.125
REMARK INTRA:                  -1.738
REMARK UNBOUND:                -1.571
REMARK WARNING: 32 MAX_TORS EXCEEDED!!!
REMARK  52 active torsions:
REMARK  status: ('A' for Active; 'I' for Inactive)
REMARK    1  A    between atoms: C11_1  and  O11_2 
REMARK    2  A    between atoms: O11_2  and  C42_28 
REMARK    3  A    between atoms: C21_3  and  N21_4 
REMARK    4  A    between atoms: C51_10  and  C61_12 
REMARK    5  A    between atoms: C61_12  and  N61_13 
REMARK    6  A    between atoms: C12_17  and  N12_18 
REMARK    7  A    between atoms: C32_23  and  N32_24 
REMARK    8  A    between atoms: C52_29  and  O52_30 
REMARK    9  A    between atoms: C62_32  and  O62_33 
REMARK   10  A    between atoms: O62_33  and  C13_34 
REMARK   11  A    between atoms: C23_35  and  O23_36 
REMARK   12  A    between atoms: C33_38  and  N33_39 
REMARK   13  A    between atoms: C43_42  and  O43_43 
REMARK   14  A    between atoms: C11_49  and  O11_50 
REMARK   15  A    between atoms: O11_50  and  C42_76 
REMARK   16  A    between atoms: C21_51  and  N21_52 
REMARK   17  A    between atoms: C51_58  and  C61_60 
REMARK   18  A    between atoms: C61_60  and  N61_61 
REMARK   19  A    between atoms: C12_65  and  N12_66 
REMARK   20  A    between atoms: C32_71  and  N32_72 
REMARK   21  A    between atoms: C52_77  and  O52_78 
REMARK   22  A    between atoms: C62_80  and  O62_81 
REMARK   23  A    between atoms: O62_81  and  C13_82 
REMARK   24  A    between atoms: C23_83  and  O23_84 
REMARK   25  A    between atoms: C33_86  and  N33_87 
REMARK   26  A    between atoms: C43_89  and  O43_90 
REMARK   27  A    between atoms: C11_96  and  O11_97 
REMARK   28  A    between atoms: O11_97  and  C42_123 
REMARK   29  A    between atoms: C21_98  and  N21_99 
REMARK   30  A    between atoms: C51_105  and  C61_107 
REMARK   31  A    between atoms: C61_107  and  N61_108 
REMARK   32  A    between atoms: C12_112  and  N12_113 
REMARK   33  A    between atoms: C32_118  and  N32_119 
REMARK   34  A    between atoms: C52_124  and  O52_125 
REMARK   35  A    between atoms: C62_127  and  O62_128 
REMARK   36  A    between atoms: O62_128  and  C13_129 
REMARK   37  A    between atoms: C23_130  and  O23_131 
REMARK   38  A    between atoms: C33_133  and  N33_134 
REMARK   39  A    between atoms: C43_136  and  O43_137 
REMARK   40  A    between atoms: C11_143  and  O11_144 
REMARK   41  A    between atoms: O11_144  and  C42_170 
REMARK   42  A    between atoms: C21_145  and  N21_146 
REMARK   43  A    between atoms: C51_152  and  C61_154 
REMARK   44  A    between atoms: C61_154  and  N61_155 
REMARK   45  A    between atoms: C12_159  and  N12_160 
REMARK   46  A    between atoms: C32_165  and  N32_166 
REMARK   47  A    between atoms: C52_171  and  O52_172 
REMARK   48  A    between atoms: C62_174  and  O62_175 
REMARK   49  A    between atoms: O62_175  and  C13_176 
REMARK   50  A    between atoms: C23_177  and  O23_178 
REMARK   51  A    between atoms: C33_180  and  N33_181 
REMARK   52  A    between atoms: C43_183  and  O43_184 
ROOT
HETATM    1  C12 LLL A1604     188.933  86.933 -13.763  1.00 47.31     0.217 C 
HETATM    2  C22 LLL A1604     189.279  85.441 -13.756  1.00 45.68     0.071 C 
HETATM    3  C32 LLL A1604     188.177  84.568 -14.359  1.00 50.23     0.217 C 
HETATM    4  C42 LLL A1604     187.749  85.060 -15.759  1.00 53.35     0.186 C 
HETATM    5  C52 LLL A1604     187.542  86.579 -15.809  1.00 51.56     0.180 C 
HETATM    6  C62 LLL A1604     188.679  87.380 -15.201  1.00 47.69     0.186 C 
ENDROOT
BRANCH   4   7
HETATM    7  O11 LLL A1604     186.496  84.378 -16.011  1.00 57.11    -0.349 OA
BRANCH   7   8
HETATM    8  C11 LLL A1604     186.409  83.413 -17.026  1.00 66.19     0.291 C 
HETATM    9  C21 LLL A1604     185.053  83.516 -17.734  1.00 67.43     0.238 C 
HETATM   10  C31 LLL A1604     183.896  83.033 -16.865  1.00 71.89     0.040 C 
HETATM   11  C41 LLL A1604     184.204  81.659 -16.269  1.00 71.39     0.036 C 
HETATM   12  C51 LLL A1604     185.552  81.671 -15.567  1.00 74.51     0.150 C 
HETATM   13  O51 LLL A1604     186.575  82.103 -16.479  1.00 67.26    -0.352 OA
BRANCH   9  14
HETATM   14  N21 LLL A1604     184.775  84.877 -18.223  1.00 70.18    -0.070 N 
ATOM     15 3H21 LLL A1604     184.127  84.859 -19.011  1.00  0.00     0.274 HD
ATOM     16 2H21 LLL A1604     184.207  85.398 -17.556  1.00  0.00     0.274 HD
ATOM     17 1H21 LLL A1604     185.626  85.388 -18.459  1.00  0.00     0.274 HD
ENDBRANCH   9  14
BRANCH  12  18
HETATM   18  C61 LLL A1604     185.968  80.311 -15.036  1.00 78.49     0.261 C 
BRANCH  18  19
HETATM   19  N61 LLL A1604     186.213  80.313 -13.593  1.00 77.35    -0.077 N 
ATOM     20 3H61 LLL A1604     185.605  79.644 -13.119  1.00  0.00     0.274 HD
ATOM     21 2H61 LLL A1604     187.119  79.896 -13.376  1.00  0.00     0.274 HD
ATOM     22 1H61 LLL A1604     186.129  81.241 -13.176  1.00  0.00     0.274 HD
ENDBRANCH  18  19
ENDBRANCH  12  18
ENDBRANCH   7   8
ENDBRANCH   4   7
BRANCH   3  23
HETATM   23  N32 LLL A1604     188.599  83.159 -14.373  1.00 47.88    -0.072 N 
ATOM     24 3H32 LLL A1604     188.114  82.622 -15.092  1.00  0.00     0.274 HD
ATOM     25 2H32 LLL A1604     189.552  83.049 -14.720  1.00  0.00     0.274 HD
ATOM     26 1H32 LLL A1604     188.480  82.749 -13.446  1.00  0.00     0.274 HD
ENDBRANCH   3  23
BRANCH   5  27
HETATM   27  O52 LLL A1604     187.473  86.980 -17.177  1.00 53.03    -0.390 OA
ATOM     28  H52 LLL A1604     186.898  87.734 -17.239  1.00  0.00     0.210 HD
ENDBRANCH   5  27
BRANCH   6  29
HETATM   29  O62 LLL A1604     188.293  88.764 -15.227  1.00 46.32    -0.349 OA
BRANCH  29  30
HETATM   30  C13 LLL A1604     188.769  89.632 -16.215  1.00 45.50     0.291 C 
HETATM   31  C23 LLL A1604     189.279  90.891 -15.523  1.00 49.71     0.198 C 
HETATM   32  C33 LLL A1604     188.140  91.693 -14.894  1.00 50.96     0.146 C 
HETATM   33  C43 LLL A1604     186.941  91.876 -15.858  1.00 47.44     0.098 C 
HETATM   34  C53 LLL A1604     186.577  90.561 -16.547  1.00 45.44     0.210 C 
HETATM   35  C83 LLL A1604     185.715  92.446 -15.152  1.00 50.41     0.050 C 
HETATM   36  O53 LLL A1604     187.710  89.903 -17.131  1.00 41.84    -0.356 OA
BRANCH  31  37
HETATM   37  O23 LLL A1604     190.207  90.549 -14.510  1.00 51.21    -0.388 OA
ATOM     38  H23 LLL A1604     189.813  89.942 -13.896  1.00  0.00     0.210 HD
ENDBRANCH  31  37
BRANCH  32  39
HETATM   39  N33 LLL A1604     188.691  92.990 -14.472  1.00 60.94    -0.416 N 
HETATM   40  C93 LLL A1604     188.567  93.280 -13.051  1.00 67.56     0.140 C 
ATOM     41  H33 LLL A1604     189.128  93.638 -15.127  1.00  0.00     0.153 HD
ENDBRANCH  32  39
BRANCH  33  42
HETATM   42  O43 LLL A1604     187.347  92.807 -16.878  1.00 43.75    -0.386 OA
ATOM     43  H43 LLL A1604     188.246  92.603 -17.107  1.00  0.00     0.210 HD
ENDBRANCH  33  42
ENDBRANCH  29  30
ENDBRANCH   6  29
BRANCH   1  44
HETATM   44  N12 LLL A1604     189.964  87.764 -13.116  1.00 40.62    -0.072 N 
ATOM     45 3H12 LLL A1604     190.031  87.552 -12.120  1.00  0.00     0.274 HD
ATOM     46 2H12 LLL A1604     190.898  87.479 -13.410  1.00  0.00     0.274 HD
ATOM     47 1H12 LLL A1604     189.821  88.762 -13.268  1.00  0.00     0.274 HD
ENDBRANCH   1  44
TORSDOF 52
ENDMDL
MODEL 7
REMARK VINA RESULT:    -7.254      9.702     14.381
REMARK INTER + INTRA:         -12.855
REMARK INTER:                 -11.027
REMARK INTRA:                  -1.827
REMARK UNBOUND:                -1.571
REMARK WARNING: 32 MAX_TORS EXCEEDED!!!
REMARK  52 active torsions:
REMARK  status: ('A' for Active; 'I' for Inactive)
REMARK    1  A    between atoms: C11_1  and  O11_2 
REMARK    2  A    between atoms: O11_2  and  C42_28 
REMARK    3  A    between atoms: C21_3  and  N21_4 
REMARK    4  A    between atoms: C51_10  and  C61_12 
REMARK    5  A    between atoms: C61_12  and  N61_13 
REMARK    6  A    between atoms: C12_17  and  N12_18 
REMARK    7  A    between atoms: C32_23  and  N32_24 
REMARK    8  A    between atoms: C52_29  and  O52_30 
REMARK    9  A    between atoms: C62_32  and  O62_33 
REMARK   10  A    between atoms: O62_33  and  C13_34 
REMARK   11  A    between atoms: C23_35  and  O23_36 
REMARK   12  A    between atoms: C33_38  and  N33_39 
REMARK   13  A    between atoms: C43_42  and  O43_43 
REMARK   14  A    between atoms: C11_49  and  O11_50 
REMARK   15  A    between atoms: O11_50  and  C42_76 
REMARK   16  A    between atoms: C21_51  and  N21_52 
REMARK   17  A    between atoms: C51_58  and  C61_60 
REMARK   18  A    between atoms: C61_60  and  N61_61 
REMARK   19  A    between atoms: C12_65  and  N12_66 
REMARK   20  A    between atoms: C32_71  and  N32_72 
REMARK   21  A    between atoms: C52_77  and  O52_78 
REMARK   22  A    between atoms: C62_80  and  O62_81 
REMARK   23  A    between atoms: O62_81  and  C13_82 
REMARK   24  A    between atoms: C23_83  and  O23_84 
REMARK   25  A    between atoms: C33_86  and  N33_87 
REMARK   26  A    between atoms: C43_89  and  O43_90 
REMARK   27  A    between atoms: C11_96  and  O11_97 
REMARK   28  A    between atoms: O11_97  and  C42_123 
REMARK   29  A    between atoms: C21_98  and  N21_99 
REMARK   30  A    between atoms: C51_105  and  C61_107 
REMARK   31  A    between atoms: C61_107  and  N61_108 
REMARK   32  A    between atoms: C12_112  and  N12_113 
REMARK   33  A    between atoms: C32_118  and  N32_119 
REMARK   34  A    between atoms: C52_124  and  O52_125 
REMARK   35  A    between atoms: C62_127  and  O62_128 
REMARK   36  A    between atoms: O62_128  and  C13_129 
REMARK   37  A    between atoms: C23_130  and  O23_131 
REMARK   38  A    between atoms: C33_133  and  N33_134 
REMARK   39  A    between atoms: C43_136  and  O43_137 
REMARK   40  A    between atoms: C11_143  and  O11_144 
REMARK   41  A    between atoms: O11_144  and  C42_170 
REMARK   42  A    between atoms: C21_145  and  N21_146 
REMARK   43  A    between atoms: C51_152  and  C61_154 
REMARK   44  A    between atoms: C61_154  and  N61_155 
REMARK   45  A    between atoms: C12_159  and  N12_160 
REMARK   46  A    between atoms: C32_165  and  N32_166 
REMARK   47  A    between atoms: C52_171  and  O52_172 
REMARK   48  A    between atoms: C62_174  and  O62_175 
REMARK   49  A    between atoms: O62_175  and  C13_176 
REMARK   50  A    between atoms: C23_177  and  O23_178 
REMARK   51  A    between atoms: C33_180  and  N33_181 
REMARK   52  A    between atoms: C43_183  and  O43_184 
ROOT
HETATM    1  C12 LLL A1604     194.794  92.779 -12.639  1.00 47.31     0.217 C 
HETATM    2  C22 LLL A1604     194.405  91.305 -12.785  1.00 45.68     0.071 C 
HETATM    3  C32 LLL A1604     192.893  91.077 -12.732  1.00 50.23     0.217 C 
HETATM    4  C42 LLL A1604     192.135  91.980 -13.729  1.00 53.35     0.186 C 
HETATM    5  C52 LLL A1604     192.624  93.434 -13.691  1.00 51.56     0.180 C 
HETATM    6  C62 LLL A1604     194.133  93.583 -13.757  1.00 47.69     0.186 C 
ENDROOT
BRANCH   4   7
HETATM    7  O11 LLL A1604     190.753  91.908 -13.300  1.00 57.11    -0.349 OA
BRANCH   7   8
HETATM    8  C11 LLL A1604     189.752  91.530 -14.207  1.00 66.19     0.291 C 
HETATM    9  C21 LLL A1604     188.454  92.287 -13.902  1.00 67.43     0.238 C 
HETATM   10  C31 LLL A1604     187.783  91.814 -12.616  1.00 71.89     0.040 C 
HETATM   11  C41 LLL A1604     187.654  90.290 -12.603  1.00 71.39     0.036 C 
HETATM   12  C51 LLL A1604     188.997  89.637 -12.886  1.00 74.51     0.150 C 
HETATM   13  O51 LLL A1604     189.523  90.121 -14.133  1.00 67.26    -0.352 OA
BRANCH   9  14
HETATM   14  N21 LLL A1604     188.651  93.746 -13.854  1.00 70.18    -0.070 N 
ATOM     15 3H21 LLL A1604     187.910  94.199 -13.318  1.00  0.00     0.274 HD
ATOM     16 2H21 LLL A1604     189.449  93.989 -13.268  1.00  0.00     0.274 HD
ATOM     17 1H21 LLL A1604     188.738  94.158 -14.783  1.00  0.00     0.274 HD
ENDBRANCH   9  14
BRANCH  12  18
HETATM   18  C61 LLL A1604     188.922  88.124 -12.987  1.00 78.49     0.261 C 
BRANCH  18  19
HETATM   19  N61 LLL A1604     189.954  87.449 -12.197  1.00 77.35    -0.077 N 
ATOM     20 3H61 LLL A1604     189.548  86.710 -11.623  1.00  0.00     0.274 HD
ATOM     21 2H61 LLL A1604     190.558  86.883 -12.794  1.00  0.00     0.274 HD
ATOM     22 1H61 LLL A1604     190.504  88.093 -11.628  1.00  0.00     0.274 HD
ENDBRANCH  18  19
ENDBRANCH  12  18
ENDBRANCH   7   8
ENDBRANCH   4   7
BRANCH   3  23
HETATM   23  N32 LLL A1604     192.589  89.652 -12.935  1.00 47.88    -0.072 N 
ATOM     24 3H32 LLL A1604     193.160  89.242 -13.674  1.00  0.00     0.274 HD
ATOM     25 2H32 LLL A1604     192.915  89.078 -12.157  1.00  0.00     0.274 HD
ATOM     26 1H32 LLL A1604     191.592  89.527 -13.110  1.00  0.00     0.274 HD
ENDBRANCH   3  23
BRANCH   5  27
HETATM   27  O52 LLL A1604     192.117  94.110 -14.841  1.00 53.03    -0.390 OA
ATOM     28  H52 LLL A1604     192.701  93.941 -15.571  1.00  0.00     0.210 HD
ENDBRANCH   5  27
BRANCH   6  29
HETATM   29  O62 LLL A1604     194.436  94.980 -13.605  1.00 46.32    -0.349 OA
BRANCH  29  30
HETATM   30  C13 LLL A1604     194.882  95.747 -14.685  1.00 45.50     0.291 C 
HETATM   31  C23 LLL A1604     196.090  96.552 -14.217  1.00 49.71     0.198 C 
HETATM   32  C33 LLL A1604     195.698  97.615 -13.192  1.00 50.96     0.146 C 
HETATM   33  C43 LLL A1604     194.455  98.431 -13.628  1.00 47.44     0.098 C 
HETATM   34  C53 LLL A1604     193.347  97.517 -14.149  1.00 45.44     0.210 C 
HETATM   35  C83 LLL A1604     193.916  99.306 -12.502  1.00 50.41     0.050 C 
HETATM   36  O53 LLL A1604     193.811  96.577 -15.129  1.00 41.84    -0.356 OA
BRANCH  31  37
HETATM   37  O23 LLL A1604     197.053  95.693 -13.636  1.00 51.21    -0.388 OA
ATOM     38  H23 LLL A1604     197.571  95.275 -14.314  1.00  0.00     0.210 HD
ENDBRANCH  31  37
BRANCH  32  39
HETATM   39  N33 LLL A1604     196.866  98.486 -12.989  1.00 60.94    -0.416 N 
HETATM   40  C93 LLL A1604     197.375  98.526 -11.625  1.00 67.56     0.140 C 
ATOM     41  H33 LLL A1604     197.287  99.023 -13.747  1.00  0.00     0.153 HD
ENDBRANCH  32  39
BRANCH  33  42
HETATM   42  O43 LLL A1604     194.861  99.289 -14.710  1.00 43.75    -0.386 OA
ATOM     43  H43 LLL A1604     194.120  99.842 -14.927  1.00  0.00     0.210 HD
ENDBRANCH  33  42
ENDBRANCH  29  30
ENDBRANCH   6  29
BRANCH   1  44
HETATM   44  N12 LLL A1604     196.252  92.988 -12.618  1.00 40.62    -0.072 N 
ATOM     45 3H12 LLL A1604     196.748  92.096 -12.592  1.00  0.00     0.274 HD
ATOM     46 2H12 LLL A1604     196.584  93.336 -13.517  1.00  0.00     0.274 HD
ATOM     47 1H12 LLL A1604     196.555  93.595 -11.856  1.00  0.00     0.274 HD
ENDBRANCH   1  44
TORSDOF 52
ENDMDL
MODEL 8
REMARK VINA RESULT:    -7.205      2.370      7.709
REMARK INTER + INTRA:         -12.778
REMARK INTER:                 -11.679
REMARK INTRA:                  -1.099
REMARK UNBOUND:                -1.571
REMARK WARNING: 32 MAX_TORS EXCEEDED!!!
REMARK  52 active torsions:
REMARK  status: ('A' for Active; 'I' for Inactive)
REMARK    1  A    between atoms: C11_1  and  O11_2 
REMARK    2  A    between atoms: O11_2  and  C42_28 
REMARK    3  A    between atoms: C21_3  and  N21_4 
REMARK    4  A    between atoms: C51_10  and  C61_12 
REMARK    5  A    between atoms: C61_12  and  N61_13 
REMARK    6  A    between atoms: C12_17  and  N12_18 
REMARK    7  A    between atoms: C32_23  and  N32_24 
REMARK    8  A    between atoms: C52_29  and  O52_30 
REMARK    9  A    between atoms: C62_32  and  O62_33 
REMARK   10  A    between atoms: O62_33  and  C13_34 
REMARK   11  A    between atoms: C23_35  and  O23_36 
REMARK   12  A    between atoms: C33_38  and  N33_39 
REMARK   13  A    between atoms: C43_42  and  O43_43 
REMARK   14  A    between atoms: C11_49  and  O11_50 
REMARK   15  A    between atoms: O11_50  and  C42_76 
REMARK   16  A    between atoms: C21_51  and  N21_52 
REMARK   17  A    between atoms: C51_58  and  C61_60 
REMARK   18  A    between atoms: C61_60  and  N61_61 
REMARK   19  A    between atoms: C12_65  and  N12_66 
REMARK   20  A    between atoms: C32_71  and  N32_72 
REMARK   21  A    between atoms: C52_77  and  O52_78 
REMARK   22  A    between atoms: C62_80  and  O62_81 
REMARK   23  A    between atoms: O62_81  and  C13_82 
REMARK   24  A    between atoms: C23_83  and  O23_84 
REMARK   25  A    between atoms: C33_86  and  N33_87 
REMARK   26  A    between atoms: C43_89  and  O43_90 
REMARK   27  A    between atoms: C11_96  and  O11_97 
REMARK   28  A    between atoms: O11_97  and  C42_123 
REMARK   29  A    between atoms: C21_98  and  N21_99 
REMARK   30  A    between atoms: C51_105  and  C61_107 
REMARK   31  A    between atoms: C61_107  and  N61_108 
REMARK   32  A    between atoms: C12_112  and  N12_113 
REMARK   33  A    between atoms: C32_118  and  N32_119 
REMARK   34  A    between atoms: C52_124  and  O52_125 
REMARK   35  A    between atoms: C62_127  and  O62_128 
REMARK   36  A    between atoms: O62_128  and  C13_129 
REMARK   37  A    between atoms: C23_130  and  O23_131 
REMARK   38  A    between atoms: C33_133  and  N33_134 
REMARK   39  A    between atoms: C43_136  and  O43_137 
REMARK   40  A    between atoms: C11_143  and  O11_144 
REMARK   41  A    between atoms: O11_144  and  C42_170 
REMARK   42  A    between atoms: C21_145  and  N21_146 
REMARK   43  A    between atoms: C51_152  and  C61_154 
REMARK   44  A    between atoms: C61_154  and  N61_155 
REMARK   45  A    between atoms: C12_159  and  N12_160 
REMARK   46  A    between atoms: C32_165  and  N32_166 
REMARK   47  A    between atoms: C52_171  and  O52_172 
REMARK   48  A    between atoms: C62_174  and  O62_175 
REMARK   49  A    between atoms: O62_175  and  C13_176 
REMARK   50  A    between atoms: C23_177  and  O23_178 
REMARK   51  A    between atoms: C33_180  and  N33_181 
REMARK   52  A    between atoms: C43_183  and  O43_184 
ROOT
HETATM    1  C12 LLL A1604     184.638  82.551 -16.768  1.00 47.31     0.217 C 
HETATM    2  C22 LLL A1604     184.399  81.147 -17.332  1.00 45.68     0.071 C 
HETATM    3  C32 LLL A1604     185.527  80.168 -17.000  1.00 50.23     0.217 C 
HETATM    4  C42 LLL A1604     185.846  80.142 -15.490  1.00 53.35     0.186 C 
HETATM    5  C52 LLL A1604     185.943  81.548 -14.887  1.00 51.56     0.180 C 
HETATM    6  C62 LLL A1604     184.785  82.460 -15.250  1.00 47.69     0.186 C 
ENDROOT
BRANCH   4   7
HETATM    7  O11 LLL A1604     187.130  79.475 -15.406  1.00 57.11    -0.349 OA
BRANCH   7   8
HETATM    8  C11 LLL A1604     187.208  78.149 -14.953  1.00 66.19     0.291 C 
HETATM    9  C21 LLL A1604     188.079  78.076 -13.693  1.00 67.43     0.238 C 
HETATM   10  C31 LLL A1604     189.559  78.301 -13.985  1.00 71.89     0.040 C 
HETATM   11  C41 LLL A1604     190.025  77.410 -15.138  1.00 71.39     0.036 C 
HETATM   12  C51 LLL A1604     189.115  77.579 -16.344  1.00 74.51     0.150 C 
HETATM   13  O51 LLL A1604     187.753  77.309 -15.972  1.00 67.26    -0.352 OA
BRANCH   9  14
HETATM   14  N21 LLL A1604     187.631  79.006 -12.643  1.00 70.18    -0.070 N 
ATOM     15 3H21 LLL A1604     187.518  79.950 -13.013  1.00  0.00     0.274 HD
ATOM     16 2H21 LLL A1604     186.665  78.818 -12.375  1.00  0.00     0.274 HD
ATOM     17 1H21 LLL A1604     188.246  79.002 -11.829  1.00  0.00     0.274 HD
ENDBRANCH   9  14
BRANCH  12  18
HETATM   18  C61 LLL A1604     189.460  76.649 -17.494  1.00 78.49     0.261 C 
BRANCH  18  19
HETATM   19  N61 LLL A1604     190.568  77.143 -18.313  1.00 77.35    -0.077 N 
ATOM     20 3H61 LLL A1604     190.743  78.131 -18.133  1.00  0.00     0.274 HD
ATOM     21 2H61 LLL A1604     191.457  76.756 -17.995  1.00  0.00     0.274 HD
ATOM     22 1H61 LLL A1604     190.432  76.972 -19.310  1.00  0.00     0.274 HD
ENDBRANCH  18  19
ENDBRANCH  12  18
ENDBRANCH   7   8
ENDBRANCH   4   7
BRANCH   3  23
HETATM   23  N32 LLL A1604     185.205  78.831 -17.522  1.00 47.88    -0.072 N 
ATOM     24 3H32 LLL A1604     185.723  78.620 -18.375  1.00  0.00     0.274 HD
ATOM     25 2H32 LLL A1604     185.582  78.090 -16.930  1.00  0.00     0.274 HD
ATOM     26 1H32 LLL A1604     184.198  78.739 -17.654  1.00  0.00     0.274 HD
ENDBRANCH   3  23
BRANCH   5  27
HETATM   27  O52 LLL A1604     185.913  81.432 -13.464  1.00 53.03    -0.390 OA
ATOM     28  H52 LLL A1604     186.369  82.178 -13.093  1.00  0.00     0.210 HD
ENDBRANCH   5  27
BRANCH   6  29
HETATM   29  O62 LLL A1604     185.070  83.759 -14.704  1.00 46.32    -0.349 OA
BRANCH  29  30
HETATM   30  C13 LLL A1604     186.076  84.566 -15.243  1.00 45.50     0.291 C 
HETATM   31  C23 LLL A1604     186.950  85.053 -14.091  1.00 49.71     0.198 C 
HETATM   32  C33 LLL A1604     186.197  86.020 -13.179  1.00 50.96     0.146 C 
HETATM   33  C43 LLL A1604     185.435  87.111 -13.971  1.00 47.44     0.098 C 
HETATM   34  C53 LLL A1604     184.662  86.508 -15.144  1.00 45.44     0.210 C 
HETATM   35  C83 LLL A1604     184.486  87.911 -13.085  1.00 50.41     0.050 C 
HETATM   36  O53 LLL A1604     185.466  85.640 -15.956  1.00 41.84    -0.356 OA
BRANCH  31  37
HETATM   37  O23 LLL A1604     187.395  83.953 -13.319  1.00 51.21    -0.388 OA
ATOM     38  H23 LLL A1604     186.975  83.959 -12.468  1.00  0.00     0.210 HD
ENDBRANCH  31  37
BRANCH  32  39
HETATM   39  N33 LLL A1604     187.178  86.614 -12.257  1.00 60.94    -0.416 N 
HETATM   40  C93 LLL A1604     188.521  86.765 -12.799  1.00 67.56     0.140 C 
ATOM     41  H33 LLL A1604     186.935  86.899 -11.309  1.00  0.00     0.153 HD
ENDBRANCH  32  39
BRANCH  33  42
HETATM   42  O43 LLL A1604     186.416  88.016 -14.512  1.00 43.75    -0.386 OA
ATOM     43  H43 LLL A1604     186.689  88.592 -13.807  1.00  0.00     0.210 HD
ENDBRANCH  33  42
ENDBRANCH  29  30
ENDBRANCH   6  29
BRANCH   1  44
HETATM   44  N12 LLL A1604     183.586  83.509 -17.149  1.00 40.62    -0.072 N 
ATOM     45 3H12 LLL A1604     183.754  84.423 -16.728  1.00  0.00     0.274 HD
ATOM     46 2H12 LLL A1604     183.665  83.764 -18.134  1.00  0.00     0.274 HD
ATOM     47 1H12 LLL A1604     182.647  83.175 -16.932  1.00  0.00     0.274 HD
ENDBRANCH   1  44
TORSDOF 52
ENDMDL
MODEL 9
REMARK VINA RESULT:    -7.139      2.009      2.766
REMARK INTER + INTRA:         -12.674
REMARK INTER:                 -10.816
REMARK INTRA:                  -1.859
REMARK UNBOUND:                -1.571
REMARK WARNING: 32 MAX_TORS EXCEEDED!!!
REMARK  52 active torsions:
REMARK  status: ('A' for Active; 'I' for Inactive)
REMARK    1  A    between atoms: C11_1  and  O11_2 
REMARK    2  A    between atoms: O11_2  and  C42_28 
REMARK    3  A    between atoms: C21_3  and  N21_4 
REMARK    4  A    between atoms: C51_10  and  C61_12 
REMARK    5  A    between atoms: C61_12  and  N61_13 
REMARK    6  A    between atoms: C12_17  and  N12_18 
REMARK    7  A    between atoms: C32_23  and  N32_24 
REMARK    8  A    between atoms: C52_29  and  O52_30 
REMARK    9  A    between atoms: C62_32  and  O62_33 
REMARK   10  A    between atoms: O62_33  and  C13_34 
REMARK   11  A    between atoms: C23_35  and  O23_36 
REMARK   12  A    between atoms: C33_38  and  N33_39 
REMARK   13  A    between atoms: C43_42  and  O43_43 
REMARK   14  A    between atoms: C11_49  and  O11_50 
REMARK   15  A    between atoms: O11_50  and  C42_76 
REMARK   16  A    between atoms: C21_51  and  N21_52 
REMARK   17  A    between atoms: C51_58  and  C61_60 
REMARK   18  A    between atoms: C61_60  and  N61_61 
REMARK   19  A    between atoms: C12_65  and  N12_66 
REMARK   20  A    between atoms: C32_71  and  N32_72 
REMARK   21  A    between atoms: C52_77  and  O52_78 
REMARK   22  A    between atoms: C62_80  and  O62_81 
REMARK   23  A    between atoms: O62_81  and  C13_82 
REMARK   24  A    between atoms: C23_83  and  O23_84 
REMARK   25  A    between atoms: C33_86  and  N33_87 
REMARK   26  A    between atoms: C43_89  and  O43_90 
REMARK   27  A    between atoms: C11_96  and  O11_97 
REMARK   28  A    between atoms: O11_97  and  C42_123 
REMARK   29  A    between atoms: C21_98  and  N21_99 
REMARK   30  A    between atoms: C51_105  and  C61_107 
REMARK   31  A    between atoms: C61_107  and  N61_108 
REMARK   32  A    between atoms: C12_112  and  N12_113 
REMARK   33  A    between atoms: C32_118  and  N32_119 
REMARK   34  A    between atoms: C52_124  and  O52_125 
REMARK   35  A    between atoms: C62_127  and  O62_128 
REMARK   36  A    between atoms: O62_128  and  C13_129 
REMARK   37  A    between atoms: C23_130  and  O23_131 
REMARK   38  A    between atoms: C33_133  and  N33_134 
REMARK   39  A    between atoms: C43_136  and  O43_137 
REMARK   40  A    between atoms: C11_143  and  O11_144 
REMARK   41  A    between atoms: O11_144  and  C42_170 
REMARK   42  A    between atoms: C21_145  and  N21_146 
REMARK   43  A    between atoms: C51_152  and  C61_154 
REMARK   44  A    between atoms: C61_154  and  N61_155 
REMARK   45  A    between atoms: C12_159  and  N12_160 
REMARK   46  A    between atoms: C32_165  and  N32_166 
REMARK   47  A    between atoms: C52_171  and  O52_172 
REMARK   48  A    between atoms: C62_174  and  O62_175 
REMARK   49  A    between atoms: O62_175  and  C13_176 
REMARK   50  A    between atoms: C23_177  and  O23_178 
REMARK   51  A    between atoms: C33_180  and  N33_181 
REMARK   52  A    between atoms: C43_183  and  O43_184 
ROOT
HETATM    1  C12 LLL A1604     187.258  84.406 -17.457  1.00 47.31     0.217 C 
HETATM    2  C22 LLL A1604     187.848  85.759 -17.865  1.00 45.68     0.071 C 
HETATM    3  C32 LLL A1604     187.696  86.830 -16.782  1.00 50.23     0.217 C 
HETATM    4  C42 LLL A1604     188.229  86.351 -15.414  1.00 53.35     0.186 C 
HETATM    5  C52 LLL A1604     187.759  84.933 -15.066  1.00 51.56     0.180 C 
HETATM    6  C62 LLL A1604     187.950  83.924 -16.183  1.00 47.69     0.186 C 
ENDROOT
BRANCH   4   7
HETATM    7  O11 LLL A1604     187.688  87.302 -14.465  1.00 57.11    -0.349 OA
BRANCH   7   8
HETATM    8  C11 LLL A1604     188.541  88.189 -13.790  1.00 66.19     0.291 C 
HETATM    9  C21 LLL A1604     188.198  88.213 -12.296  1.00 67.43     0.238 C 
HETATM   10  C31 LLL A1604     186.874  88.912 -12.007  1.00 71.89     0.040 C 
HETATM   11  C41 LLL A1604     186.819  90.275 -12.699  1.00 71.39     0.036 C 
HETATM   12  C51 LLL A1604     187.145  90.137 -14.177  1.00 74.51     0.150 C 
HETATM   13  O51 LLL A1604     188.424  89.502 -14.339  1.00 67.26    -0.352 OA
BRANCH   9  14
HETATM   14  N21 LLL A1604     188.193  86.868 -11.697  1.00 70.18    -0.070 N 
ATOM     15 3H21 LLL A1604     189.088  86.399 -11.840  1.00  0.00     0.274 HD
ATOM     16 2H21 LLL A1604     188.197  86.920 -10.679  1.00  0.00     0.274 HD
ATOM     17 1H21 LLL A1604     187.420  86.294 -12.033  1.00  0.00     0.274 HD
ENDBRANCH   9  14
BRANCH  12  18
HETATM   18  C61 LLL A1604     187.206  91.467 -14.908  1.00 78.49     0.261 C 
BRANCH  18  19
HETATM   19  N61 LLL A1604     186.926  91.344 -16.340  1.00 77.35    -0.077 N 
ATOM     20 3H61 LLL A1604     186.461  92.180 -16.693  1.00  0.00     0.274 HD
ATOM     21 2H61 LLL A1604     187.787  91.389 -16.885  1.00  0.00     0.274 HD
ATOM     22 1H61 LLL A1604     186.392  90.505 -16.570  1.00  0.00     0.274 HD
ENDBRANCH  18  19
ENDBRANCH  12  18
ENDBRANCH   7   8
ENDBRANCH   4   7
BRANCH   3  23
HETATM   23  N32 LLL A1604     188.332  88.083 -17.216  1.00 47.88    -0.072 N 
ATOM     24 3H32 LLL A1604     187.646  88.814 -17.404  1.00  0.00     0.274 HD
ATOM     25 2H32 LLL A1604     188.834  88.540 -16.455  1.00  0.00     0.274 HD
ATOM     26 1H32 LLL A1604     188.935  87.909 -18.021  1.00  0.00     0.274 HD
ENDBRANCH   3  23
BRANCH   5  27
HETATM   27  O52 LLL A1604     188.542  84.454 -13.973  1.00 53.03    -0.390 OA
ATOM     28  H52 LLL A1604     188.219  83.596 -13.725  1.00  0.00     0.210 HD
ENDBRANCH   5  27
BRANCH   6  29
HETATM   29  O62 LLL A1604     187.371  82.683 -15.748  1.00 46.32    -0.349 OA
BRANCH  29  30
HETATM   30  C13 LLL A1604     186.075  82.631 -15.226  1.00 45.50     0.291 C 
HETATM   31  C23 LLL A1604     186.082  81.651 -14.057  1.00 49.71     0.198 C 
HETATM   32  C33 LLL A1604     186.311  80.215 -14.525  1.00 50.96     0.146 C 
HETATM   33  C43 LLL A1604     185.421  79.835 -15.735  1.00 47.44     0.098 C 
HETATM   34  C53 LLL A1604     185.437  80.931 -16.800  1.00 45.44     0.210 C 
HETATM   35  C83 LLL A1604     185.830  78.504 -16.356  1.00 50.41     0.050 C 
HETATM   36  O53 LLL A1604     185.180  82.237 -16.264  1.00 41.84    -0.356 OA
BRANCH  31  37
HETATM   37  O23 LLL A1604     187.100  81.997 -13.137  1.00 51.21    -0.388 OA
ATOM     38  H23 LLL A1604     186.723  82.420 -12.375  1.00  0.00     0.210 HD
ENDBRANCH  31  37
BRANCH  32  39
HETATM   39  N33 LLL A1604     186.061  79.330 -13.377  1.00 60.94    -0.416 N 
HETATM   40  C93 LLL A1604     187.189  78.498 -12.981  1.00 67.56     0.140 C 
ATOM     41  H33 LLL A1604     185.163  79.300 -12.894  1.00  0.00     0.153 HD
ENDBRANCH  32  39
BRANCH  33  42
HETATM   42  O43 LLL A1604     184.070  79.711 -15.253  1.00 43.75    -0.386 OA
ATOM     43  H43 LLL A1604     183.612  80.510 -15.487  1.00  0.00     0.210 HD
ENDBRANCH  33  42
ENDBRANCH  29  30
ENDBRANCH   6  29
BRANCH   1  44
HETATM   44  N12 LLL A1604     187.342  83.398 -18.528  1.00 40.62    -0.072 N 
ATOM     45 3H12 LLL A1604     188.182  82.829 -18.429  1.00  0.00     0.274 HD
ATOM     46 2H12 LLL A1604     186.635  82.673 -18.403  1.00  0.00     0.274 HD
ATOM     47 1H12 LLL A1604     187.286  83.806 -19.462  1.00  0.00     0.274 HD
ENDBRANCH   1  44
TORSDOF 52
ENDMDL
