REMARK  16 active torsions:
REMARK  status: ('A' for Active; 'I' for Inactive)
REMARK    1  A    between atoms: C11_1  and  N11_2 
REMARK       I    between atoms: N11_2  and  CA1_4 
REMARK    2  A    between atoms: C21_9  and  O21_10 
REMARK    3  A    between atoms: C31_12  and  N31_13 
REMARK       I    between atoms: N31_13  and  CD1_15 
REMARK    4  A    between atoms: C41_20  and  O41_21 
REMARK    5  A    between atoms: O41_21  and  C12_28 
REMARK    6  A    between atoms: C51_22  and  O51_23 
REMARK    7  A    between atoms: C61_25  and  O61_26 
REMARK    8  A    between atoms: C22_29  and  O13_38 
REMARK    9  A    between atoms: C32_30  and  O32_31 
REMARK   10  A    between atoms: C32_30  and  CG2_33 
REMARK   11  A    between atoms: O13_38  and  C13_39 
REMARK   12  A    between atoms: C23_40  and  N23_41 
REMARK   13  A    between atoms: C33_45  and  O33_46 
REMARK   14  A    between atoms: C43_48  and  O43_49 
REMARK   15  A    between atoms: C53_51  and  C63_53 
REMARK   16  A    between atoms: C63_53  and  O63_54 
ROOT
HETATM    1  C12 SRY A1860     179.211  98.231  -4.189  1.00 71.66     0.293 C 
HETATM    2  C22 SRY A1860     178.310  99.085  -3.297  1.00 72.81     0.223 C 
HETATM    3  C32 SRY A1860     178.187  98.275  -2.040  1.00 79.11     0.166 C 
HETATM    4  C42 SRY A1860     178.849  97.003  -2.428  1.00 79.85     0.165 C 
HETATM    5  CH2 SRY A1860     179.396  96.232  -1.252  1.00 83.53     0.043 C 
HETATM    6  O42 SRY A1860     179.878  97.326  -3.340  1.00 76.91    -0.350 OA
ENDROOT
BRANCH   1   7
HETATM    7  O41 SRY A1860     178.473  97.535  -5.170  1.00 69.52    -0.348 OA
BRANCH   7   8
HETATM    8  C41 SRY A1860     179.183  96.480  -5.810  1.00 63.72     0.181 C 
HETATM    9  C31 SRY A1860     178.899  96.733  -7.263  1.00 61.93     0.146 C 
HETATM   10  C21 SRY A1860     179.597  95.726  -8.125  1.00 66.40     0.168 C 
HETATM   11  C11 SRY A1860     179.121  94.364  -7.789  1.00 68.38     0.146 C 
HETATM   12  C61 SRY A1860     179.338  94.077  -6.338  1.00 66.72     0.174 C 
HETATM   13  C51 SRY A1860     178.705  95.096  -5.433  1.00 63.53     0.180 C 
BRANCH   9  14
HETATM   14  N31 SRY A1860     179.269  98.098  -7.638  1.00 66.73    -0.355 N 
HETATM   15  CD1 SRY A1860     178.407  98.928  -8.519  1.00 75.39     0.182 C 
HETATM   16  NE1 SRY A1860     177.187  98.357  -9.021  1.00 81.29    -0.064 NA
HETATM   17  NF1 SRY A1860     178.724 100.188  -8.873  1.00 77.61    -0.374 N 
ATOM     18 2HF1 SRY A1860     179.590 100.593  -8.517  1.00  0.00     0.158 HD
ATOM     19 1HF1 SRY A1860     178.132 100.758  -9.478  1.00  0.00     0.158 HD
ATOM     20  H31 SRY A1860     180.142  98.490  -7.285  1.00  0.00     0.162 HD
ENDBRANCH   9  14
BRANCH  10  21
HETATM   21  O21 SRY A1860     179.333  95.948  -9.467  1.00 71.96    -0.391 OA
ATOM     22  H21 SRY A1860     179.638  96.821  -9.682  1.00  0.00     0.210 HD
ENDBRANCH  10  21
BRANCH  11  23
HETATM   23  N11 SRY A1860     179.917  93.371  -8.438  1.00 76.44    -0.355 N 
HETATM   24  CA1 SRY A1860     179.418  92.625  -9.579  1.00 85.70     0.182 C 
HETATM   25  NB1 SRY A1860     178.087  92.910 -10.074  1.00 93.50    -0.064 NA
HETATM   26  NC1 SRY A1860     180.153  91.711 -10.158  1.00 85.31    -0.374 N 
ATOM     27 2HC1 SRY A1860     181.090  91.510  -9.809  1.00  0.00     0.158 HD
ATOM     28 1HC1 SRY A1860     179.802  91.187 -10.960  1.00  0.00     0.158 HD
ATOM     29  H11 SRY A1860     180.858  93.182  -8.092  1.00  0.00     0.162 HD
ENDBRANCH  11  23
BRANCH  12  30
HETATM   30  O61 SRY A1860     178.871  92.790  -6.019  1.00 66.42    -0.391 OA
ATOM     31  H61 SRY A1860     179.009  92.608  -5.097  1.00  0.00     0.210 HD
ENDBRANCH  12  30
BRANCH  13  32
HETATM   32  O51 SRY A1860     179.042  94.809  -4.140  1.00 60.11    -0.390 OA
ATOM     33  H51 SRY A1860     178.742  93.939  -3.903  1.00  0.00     0.210 HD
ENDBRANCH  13  32
ENDBRANCH   7   8
ENDBRANCH   1   7
BRANCH   2  34
HETATM   34  O13 SRY A1860     178.809 100.391  -3.142  1.00 74.96    -0.345 OA
BRANCH  34  35
HETATM   35  C13 SRY A1860     178.281 101.071  -4.254  1.00 82.06     0.294 C 
HETATM   36  C23 SRY A1860     178.072 102.558  -4.027  1.00 88.41     0.271 C 
HETATM   37  C33 SRY A1860     179.440 103.178  -3.772  1.00 94.07     0.185 C 
HETATM   38  C43 SRY A1860     180.241 102.876  -4.995  1.00 94.04     0.180 C 
HETATM   39  C53 SRY A1860     180.281 101.402  -5.297  1.00 90.34     0.179 C 
HETATM   40  O53 SRY A1860     179.064 100.814  -5.385  1.00 82.16    -0.349 OA
BRANCH  36  41
HETATM   41  N23 SRY A1860     177.203 102.812  -2.933  1.00 86.34    -0.068 N 
HETATM   42  CI3 SRY A1860     176.276 101.731  -2.864  1.00 84.88     0.267 C 
ATOM     43 2H23 SRY A1860     177.701 102.966  -2.056  1.00  0.00     0.277 HD
ATOM     44 1H23 SRY A1860     176.748 103.723  -2.989  1.00  0.00     0.277 HD
ENDBRANCH  36  41
BRANCH  37  45
HETATM   45  O33 SRY A1860     179.338 104.538  -3.521  1.00 97.34    -0.391 OA
ATOM     46  H33 SRY A1860     180.191 104.925  -3.362  1.00  0.00     0.210 HD
ENDBRANCH  37  45
BRANCH  38  47
HETATM   47  O43 SRY A1860     181.539 103.324  -4.860  1.00 95.04    -0.390 OA
ATOM     48  H43 SRY A1860     182.049 103.132  -5.638  1.00  0.00     0.210 HD
ENDBRANCH  38  47
BRANCH  39  49
HETATM   49  C63 SRY A1860     180.906 101.246  -6.645  1.00 97.11     0.198 C 
BRANCH  49  50
HETATM   50  O63 SRY A1860     181.527  99.956  -6.753  1.00101.73    -0.398 OA
ATOM     51  H63 SRY A1860     181.924  99.857  -7.610  1.00  0.00     0.209 HD
ENDBRANCH  49  50
ENDBRANCH  39  49
ENDBRANCH  34  35
ENDBRANCH   2  34
BRANCH   3  52
HETATM   52  O32 SRY A1860     178.880  98.801  -0.949  1.00 83.76    -0.377 OA
ATOM     53  H32 SRY A1860     178.802  98.288  -0.153  1.00  0.00     0.211 HD
ENDBRANCH   3  52
BRANCH   3  54
HETATM   54  CG2 SRY A1860     176.783  98.043  -1.660  1.00 85.27     0.274 C 
HETATM   55  OG2 SRY A1860     176.548  97.183  -0.837  1.00 91.11    -0.303 OA
ENDBRANCH   3  54
TORSDOF 16
