MODEL 1
REMARK VINA RESULT:    -7.063      0.000      0.000
REMARK INTER + INTRA:         -12.887
REMARK INTER:                 -10.986
REMARK INTRA:                  -1.901
REMARK UNBOUND:                -1.901
REMARK WARNING: 32 MAX_TORS EXCEEDED!!!
REMARK  52 active torsions:
REMARK  status: ('A' for Active; 'I' for Inactive)
REMARK    1  A    between atoms: C11_1  and  O11_2 
REMARK    2  A    between atoms: O11_2  and  C42_28 
REMARK    3  A    between atoms: C21_3  and  N21_4 
REMARK    4  A    between atoms: C51_10  and  C61_12 
REMARK    5  A    between atoms: C61_12  and  N61_13 
REMARK    6  A    between atoms: C12_17  and  N12_18 
REMARK    7  A    between atoms: C32_23  and  N32_24 
REMARK    8  A    between atoms: C52_29  and  O52_30 
REMARK    9  A    between atoms: C62_32  and  O62_33 
REMARK   10  A    between atoms: O62_33  and  C13_34 
REMARK   11  A    between atoms: C23_35  and  O23_36 
REMARK   12  A    between atoms: C33_38  and  N33_39 
REMARK   13  A    between atoms: C43_42  and  O43_43 
REMARK   14  A    between atoms: C11_49  and  O11_50 
REMARK   15  A    between atoms: O11_50  and  C42_76 
REMARK   16  A    between atoms: C21_51  and  N21_52 
REMARK   17  A    between atoms: C51_58  and  C61_60 
REMARK   18  A    between atoms: C61_60  and  N61_61 
REMARK   19  A    between atoms: C12_65  and  N12_66 
REMARK   20  A    between atoms: C32_71  and  N32_72 
REMARK   21  A    between atoms: C52_77  and  O52_78 
REMARK   22  A    between atoms: C62_80  and  O62_81 
REMARK   23  A    between atoms: O62_81  and  C13_82 
REMARK   24  A    between atoms: C23_83  and  O23_84 
REMARK   25  A    between atoms: C33_86  and  N33_87 
REMARK   26  A    between atoms: C43_89  and  O43_90 
REMARK   27  A    between atoms: C11_96  and  O11_97 
REMARK   28  A    between atoms: O11_97  and  C42_123 
REMARK   29  A    between atoms: C21_98  and  N21_99 
REMARK   30  A    between atoms: C51_105  and  C61_107 
REMARK   31  A    between atoms: C61_107  and  N61_108 
REMARK   32  A    between atoms: C12_112  and  N12_113 
REMARK   33  A    between atoms: C32_118  and  N32_119 
REMARK   34  A    between atoms: C52_124  and  O52_125 
REMARK   35  A    between atoms: C62_127  and  O62_128 
REMARK   36  A    between atoms: O62_128  and  C13_129 
REMARK   37  A    between atoms: C23_130  and  O23_131 
REMARK   38  A    between atoms: C33_133  and  N33_134 
REMARK   39  A    between atoms: C43_136  and  O43_137 
REMARK   40  A    between atoms: C11_143  and  O11_144 
REMARK   41  A    between atoms: O11_144  and  C42_170 
REMARK   42  A    between atoms: C21_145  and  N21_146 
REMARK   43  A    between atoms: C51_152  and  C61_154 
REMARK   44  A    between atoms: C61_154  and  N61_155 
REMARK   45  A    between atoms: C12_159  and  N12_160 
REMARK   46  A    between atoms: C32_165  and  N32_166 
REMARK   47  A    between atoms: C52_171  and  O52_172 
REMARK   48  A    between atoms: C62_174  and  O62_175 
REMARK   49  A    between atoms: O62_175  and  C13_176 
REMARK   50  A    between atoms: C23_177  and  O23_178 
REMARK   51  A    between atoms: C33_180  and  N33_181 
REMARK   52  A    between atoms: C43_183  and  O43_184 
ROOT
HETATM    1  C12 LLL A1604     169.349 160.154 132.022  1.00 47.31     0.217 C 
HETATM    2  C22 LLL A1604     169.222 159.260 133.260  1.00 45.68     0.071 C 
HETATM    3  C32 LLL A1604     169.113 157.773 132.916  1.00 50.23     0.217 C 
HETATM    4  C42 LLL A1604     170.247 157.310 131.977  1.00 53.35     0.186 C 
HETATM    5  C52 LLL A1604     170.477 158.281 130.812  1.00 51.56     0.180 C 
HETATM    6  C62 LLL A1604     170.586 159.736 131.230  1.00 47.69     0.186 C 
ENDROOT
BRANCH   4   7
HETATM    7  O11 LLL A1604     169.797 156.028 131.475  1.00 57.11    -0.349 OA
BRANCH   7   8
HETATM    8  C11 LLL A1604     168.672 155.952 130.640  1.00 66.19     0.291 C 
HETATM    9  C21 LLL A1604     168.051 154.553 130.722  1.00 67.43     0.238 C 
HETATM   10  C31 LLL A1604     168.906 153.487 130.044  1.00 71.89     0.040 C 
HETATM   11  C41 LLL A1604     169.305 153.929 128.635  1.00 71.39     0.036 C 
HETATM   12  C51 LLL A1604     169.935 155.311 128.667  1.00 74.51     0.150 C 
HETATM   13  O51 LLL A1604     169.037 156.245 129.290  1.00 67.26    -0.352 OA
BRANCH   9  14
HETATM   14  N21 LLL A1604     167.754 154.148 132.106  1.00 70.18    -0.070 N 
ATOM     15 3H21 LLL A1604     168.578 154.242 132.700  1.00  0.00     0.274 HD
ATOM     16 2H21 LLL A1604     167.145 154.826 132.564  1.00  0.00     0.274 HD
ATOM     17 1H21 LLL A1604     167.365 153.207 132.163  1.00  0.00     0.274 HD
ENDBRANCH   9  14
BRANCH  12  18
HETATM   18  C61 LLL A1604     170.266 155.855 127.289  1.00 78.49     0.261 C 
BRANCH  18  19
HETATM   19  N61 LLL A1604     171.515 156.619 127.262  1.00 77.35    -0.077 N 
ATOM     20 3H61 LLL A1604     172.099 156.391 128.067  1.00  0.00     0.274 HD
ATOM     21 2H61 LLL A1604     172.127 156.291 126.515  1.00  0.00     0.274 HD
ATOM     22 1H61 LLL A1604     171.364 157.626 127.194  1.00  0.00     0.274 HD
ENDBRANCH  18  19
ENDBRANCH  12  18
ENDBRANCH   7   8
ENDBRANCH   4   7
BRANCH   3  23
HETATM   23  N32 LLL A1604     169.052 156.973 134.148  1.00 47.88    -0.072 N 
ATOM     24 3H32 LLL A1604     169.715 157.302 134.850  1.00  0.00     0.274 HD
ATOM     25 2H32 LLL A1604     168.189 157.136 134.668  1.00  0.00     0.274 HD
ATOM     26 1H32 LLL A1604     169.186 155.985 133.932  1.00  0.00     0.274 HD
ENDBRANCH   3  23
BRANCH   5  27
HETATM   27  O52 LLL A1604     171.725 157.960 130.197  1.00 53.03    -0.390 OA
ATOM     28  H52 LLL A1604     171.549 157.554 129.356  1.00  0.00     0.210 HD
ENDBRANCH   5  27
BRANCH   6  29
HETATM   29  O62 LLL A1604     170.692 160.522 130.031  1.00 46.32    -0.349 OA
BRANCH  29  30
HETATM   30  C13 LLL A1604     171.830 161.288 129.764  1.00 45.50     0.291 C 
HETATM   31  C23 LLL A1604     171.368 162.642 129.236  1.00 49.71     0.198 C 
HETATM   32  C33 LLL A1604     170.717 162.521 127.859  1.00 50.96     0.146 C 
HETATM   33  C43 LLL A1604     171.549 161.650 126.884  1.00 47.44     0.098 C 
HETATM   34  C53 LLL A1604     172.018 160.360 127.555  1.00 45.44     0.210 C 
HETATM   35  C83 LLL A1604     170.782 161.320 125.608  1.00 50.41     0.050 C 
HETATM   36  O53 LLL A1604     172.643 160.585 128.826  1.00 41.84    -0.356 OA
BRANCH  31  37
HETATM   37  O23 LLL A1604     170.436 163.221 130.130  1.00 51.21    -0.388 OA
ATOM     38  H23 LLL A1604     169.554 162.950 129.905  1.00  0.00     0.210 HD
ENDBRANCH  31  37
BRANCH  32  39
HETATM   39  N33 LLL A1604     170.530 163.882 127.335  1.00 60.94    -0.416 N 
HETATM   40  C93 LLL A1604     169.146 164.266 127.095  1.00 67.56     0.140 C 
ATOM     41  H33 LLL A1604     171.312 164.511 127.154  1.00  0.00     0.153 HD
ENDBRANCH  32  39
BRANCH  33  42
HETATM   42  O43 LLL A1604     172.719 162.407 126.523  1.00 43.75    -0.386 OA
ATOM     43  H43 LLL A1604     172.683 162.555 125.585  1.00  0.00     0.210 HD
ENDBRANCH  33  42
ENDBRANCH  29  30
ENDBRANCH   6  29
BRANCH   1  44
HETATM   44  N12 LLL A1604     169.382 161.589 132.352  1.00 40.62    -0.072 N 
ATOM     45 3H12 LLL A1604     169.038 161.754 133.299  1.00  0.00     0.274 HD
ATOM     46 2H12 LLL A1604     170.342 161.915 132.465  1.00  0.00     0.274 HD
ATOM     47 1H12 LLL A1604     168.878 162.163 131.677  1.00  0.00     0.274 HD
ENDBRANCH   1  44
TORSDOF 52
ENDMDL
MODEL 2
REMARK VINA RESULT:    -6.827      4.941      8.633
REMARK INTER + INTRA:         -12.519
REMARK INTER:                 -11.688
REMARK INTRA:                  -0.831
REMARK UNBOUND:                -1.901
REMARK WARNING: 32 MAX_TORS EXCEEDED!!!
REMARK  52 active torsions:
REMARK  status: ('A' for Active; 'I' for Inactive)
REMARK    1  A    between atoms: C11_1  and  O11_2 
REMARK    2  A    between atoms: O11_2  and  C42_28 
REMARK    3  A    between atoms: C21_3  and  N21_4 
REMARK    4  A    between atoms: C51_10  and  C61_12 
REMARK    5  A    between atoms: C61_12  and  N61_13 
REMARK    6  A    between atoms: C12_17  and  N12_18 
REMARK    7  A    between atoms: C32_23  and  N32_24 
REMARK    8  A    between atoms: C52_29  and  O52_30 
REMARK    9  A    between atoms: C62_32  and  O62_33 
REMARK   10  A    between atoms: O62_33  and  C13_34 
REMARK   11  A    between atoms: C23_35  and  O23_36 
REMARK   12  A    between atoms: C33_38  and  N33_39 
REMARK   13  A    between atoms: C43_42  and  O43_43 
REMARK   14  A    between atoms: C11_49  and  O11_50 
REMARK   15  A    between atoms: O11_50  and  C42_76 
REMARK   16  A    between atoms: C21_51  and  N21_52 
REMARK   17  A    between atoms: C51_58  and  C61_60 
REMARK   18  A    between atoms: C61_60  and  N61_61 
REMARK   19  A    between atoms: C12_65  and  N12_66 
REMARK   20  A    between atoms: C32_71  and  N32_72 
REMARK   21  A    between atoms: C52_77  and  O52_78 
REMARK   22  A    between atoms: C62_80  and  O62_81 
REMARK   23  A    between atoms: O62_81  and  C13_82 
REMARK   24  A    between atoms: C23_83  and  O23_84 
REMARK   25  A    between atoms: C33_86  and  N33_87 
REMARK   26  A    between atoms: C43_89  and  O43_90 
REMARK   27  A    between atoms: C11_96  and  O11_97 
REMARK   28  A    between atoms: O11_97  and  C42_123 
REMARK   29  A    between atoms: C21_98  and  N21_99 
REMARK   30  A    between atoms: C51_105  and  C61_107 
REMARK   31  A    between atoms: C61_107  and  N61_108 
REMARK   32  A    between atoms: C12_112  and  N12_113 
REMARK   33  A    between atoms: C32_118  and  N32_119 
REMARK   34  A    between atoms: C52_124  and  O52_125 
REMARK   35  A    between atoms: C62_127  and  O62_128 
REMARK   36  A    between atoms: O62_128  and  C13_129 
REMARK   37  A    between atoms: C23_130  and  O23_131 
REMARK   38  A    between atoms: C33_133  and  N33_134 
REMARK   39  A    between atoms: C43_136  and  O43_137 
REMARK   40  A    between atoms: C11_143  and  O11_144 
REMARK   41  A    between atoms: O11_144  and  C42_170 
REMARK   42  A    between atoms: C21_145  and  N21_146 
REMARK   43  A    between atoms: C51_152  and  C61_154 
REMARK   44  A    between atoms: C61_154  and  N61_155 
REMARK   45  A    between atoms: C12_159  and  N12_160 
REMARK   46  A    between atoms: C32_165  and  N32_166 
REMARK   47  A    between atoms: C52_171  and  O52_172 
REMARK   48  A    between atoms: C62_174  and  O62_175 
REMARK   49  A    between atoms: O62_175  and  C13_176 
REMARK   50  A    between atoms: C23_177  and  O23_178 
REMARK   51  A    between atoms: C33_180  and  N33_181 
REMARK   52  A    between atoms: C43_183  and  O43_184 
ROOT
HETATM    1  C12 LLL A1604     169.091 155.098 128.401  1.00 47.31     0.217 C 
HETATM    2  C22 LLL A1604     169.677 156.239 129.238  1.00 45.68     0.071 C 
HETATM    3  C32 LLL A1604     168.762 156.671 130.386  1.00 50.23     0.217 C 
HETATM    4  C42 LLL A1604     168.323 155.476 131.259  1.00 53.35     0.186 C 
HETATM    5  C52 LLL A1604     167.872 154.273 130.421  1.00 51.56     0.180 C 
HETATM    6  C62 LLL A1604     168.833 153.896 129.309  1.00 47.69     0.186 C 
ENDROOT
BRANCH   4   7
HETATM    7  O11 LLL A1604     167.212 155.987 132.035  1.00 57.11    -0.349 OA
BRANCH   7   8
HETATM    8  C11 LLL A1604     166.990 155.524 133.341  1.00 66.19     0.291 C 
HETATM    9  C21 LLL A1604     166.371 156.637 134.195  1.00 67.43     0.238 C 
HETATM   10  C31 LLL A1604     167.360 157.752 134.517  1.00 71.89     0.040 C 
HETATM   11  C41 LLL A1604     168.666 157.175 135.066  1.00 71.39     0.036 C 
HETATM   12  C51 LLL A1604     169.210 156.105 134.134  1.00 74.51     0.150 C 
HETATM   13  O51 LLL A1604     168.218 155.086 133.925  1.00 67.26    -0.352 OA
BRANCH   9  14
HETATM   14  N21 LLL A1604     165.158 157.206 133.584  1.00 70.18    -0.070 N 
ATOM     15 3H21 LLL A1604     164.914 158.098 134.015  1.00  0.00     0.274 HD
ATOM     16 2H21 LLL A1604     165.342 157.528 132.634  1.00  0.00     0.274 HD
ATOM     17 1H21 LLL A1604     164.370 156.559 133.606  1.00  0.00     0.274 HD
ENDBRANCH   9  14
BRANCH  12  18
HETATM   18  C61 LLL A1604     170.455 155.418 134.667  1.00 78.49     0.261 C 
BRANCH  18  19
HETATM   19  N61 LLL A1604     170.980 154.400 133.754  1.00 77.35    -0.077 N 
ATOM     20 3H61 LLL A1604     171.917 154.645 133.434  1.00  0.00     0.274 HD
ATOM     21 2H61 LLL A1604     171.196 153.537 134.255  1.00  0.00     0.274 HD
ATOM     22 1H61 LLL A1604     170.360 154.217 132.964  1.00  0.00     0.274 HD
ENDBRANCH  18  19
ENDBRANCH  12  18
ENDBRANCH   7   8
ENDBRANCH   4   7
BRANCH   3  23
HETATM   23  N32 LLL A1604     169.410 157.727 131.179  1.00 47.88    -0.072 N 
ATOM     24 3H32 LLL A1604     169.496 158.598 130.655  1.00  0.00     0.274 HD
ATOM     25 2H32 LLL A1604     168.809 158.063 131.932  1.00  0.00     0.274 HD
ATOM     26 1H32 LLL A1604     170.312 157.401 131.527  1.00  0.00     0.274 HD
ENDBRANCH   3  23
BRANCH   5  27
HETATM   27  O52 LLL A1604     167.799 153.131 131.274  1.00 53.03    -0.390 OA
ATOM     28  H52 LLL A1604     167.460 153.407 132.118  1.00  0.00     0.210 HD
ENDBRANCH   5  27
BRANCH   6  29
HETATM   29  O62 LLL A1604     168.226 152.832 128.556  1.00 46.32    -0.349 OA
BRANCH  29  30
HETATM   30  C13 LLL A1604     166.980 152.996 127.943  1.00 45.50     0.291 C 
HETATM   31  C23 LLL A1604     166.222 151.680 128.069  1.00 49.71     0.198 C 
HETATM   32  C33 LLL A1604     166.862 150.574 127.232  1.00 50.96     0.146 C 
HETATM   33  C43 LLL A1604     167.198 151.038 125.793  1.00 47.44     0.098 C 
HETATM   34  C53 LLL A1604     167.884 152.404 125.796  1.00 45.44     0.210 C 
HETATM   35  C83 LLL A1604     168.062 150.028 125.047  1.00 50.41     0.050 C 
HETATM   36  O53 LLL A1604     167.187 153.379 126.585  1.00 41.84    -0.356 OA
BRANCH  31  37
HETATM   37  O23 LLL A1604     166.188 151.264 129.422  1.00 51.21    -0.388 OA
ATOM     38  H23 LLL A1604     165.467 151.683 129.876  1.00  0.00     0.210 HD
ENDBRANCH  31  37
BRANCH  32  39
HETATM   39  N33 LLL A1604     165.937 149.431 127.224  1.00 60.94    -0.416 N 
HETATM   40  C93 LLL A1604     166.574 148.122 127.189  1.00 67.56     0.140 C 
ATOM     41  H33 LLL A1604     164.924 149.546 127.241  1.00  0.00     0.153 HD
ENDBRANCH  32  39
BRANCH  33  42
HETATM   42  O43 LLL A1604     165.952 151.176 125.084  1.00 43.75    -0.386 OA
ATOM     43  H43 LLL A1604     165.252 151.027 125.709  1.00  0.00     0.210 HD
ENDBRANCH  33  42
ENDBRANCH  29  30
ENDBRANCH   6  29
BRANCH   1  44
HETATM   44  N12 LLL A1604     169.941 154.733 127.255  1.00 40.62    -0.072 N 
ATOM     45 3H12 LLL A1604     170.872 155.138 127.347  1.00  0.00     0.274 HD
ATOM     46 2H12 LLL A1604     170.187 153.743 127.283  1.00  0.00     0.274 HD
ATOM     47 1H12 LLL A1604     169.523 154.979 126.357  1.00  0.00     0.274 HD
ENDBRANCH   1  44
TORSDOF 52
ENDMDL
MODEL 3
REMARK VINA RESULT:    -6.551      5.166      8.326
REMARK INTER + INTRA:         -12.091
REMARK INTER:                 -10.602
REMARK INTRA:                  -1.488
REMARK UNBOUND:                -1.901
REMARK WARNING: 32 MAX_TORS EXCEEDED!!!
REMARK  52 active torsions:
REMARK  status: ('A' for Active; 'I' for Inactive)
REMARK    1  A    between atoms: C11_1  and  O11_2 
REMARK    2  A    between atoms: O11_2  and  C42_28 
REMARK    3  A    between atoms: C21_3  and  N21_4 
REMARK    4  A    between atoms: C51_10  and  C61_12 
REMARK    5  A    between atoms: C61_12  and  N61_13 
REMARK    6  A    between atoms: C12_17  and  N12_18 
REMARK    7  A    between atoms: C32_23  and  N32_24 
REMARK    8  A    between atoms: C52_29  and  O52_30 
REMARK    9  A    between atoms: C62_32  and  O62_33 
REMARK   10  A    between atoms: O62_33  and  C13_34 
REMARK   11  A    between atoms: C23_35  and  O23_36 
REMARK   12  A    between atoms: C33_38  and  N33_39 
REMARK   13  A    between atoms: C43_42  and  O43_43 
REMARK   14  A    between atoms: C11_49  and  O11_50 
REMARK   15  A    between atoms: O11_50  and  C42_76 
REMARK   16  A    between atoms: C21_51  and  N21_52 
REMARK   17  A    between atoms: C51_58  and  C61_60 
REMARK   18  A    between atoms: C61_60  and  N61_61 
REMARK   19  A    between atoms: C12_65  and  N12_66 
REMARK   20  A    between atoms: C32_71  and  N32_72 
REMARK   21  A    between atoms: C52_77  and  O52_78 
REMARK   22  A    between atoms: C62_80  and  O62_81 
REMARK   23  A    between atoms: O62_81  and  C13_82 
REMARK   24  A    between atoms: C23_83  and  O23_84 
REMARK   25  A    between atoms: C33_86  and  N33_87 
REMARK   26  A    between atoms: C43_89  and  O43_90 
REMARK   27  A    between atoms: C11_96  and  O11_97 
REMARK   28  A    between atoms: O11_97  and  C42_123 
REMARK   29  A    between atoms: C21_98  and  N21_99 
REMARK   30  A    between atoms: C51_105  and  C61_107 
REMARK   31  A    between atoms: C61_107  and  N61_108 
REMARK   32  A    between atoms: C12_112  and  N12_113 
REMARK   33  A    between atoms: C32_118  and  N32_119 
REMARK   34  A    between atoms: C52_124  and  O52_125 
REMARK   35  A    between atoms: C62_127  and  O62_128 
REMARK   36  A    between atoms: O62_128  and  C13_129 
REMARK   37  A    between atoms: C23_130  and  O23_131 
REMARK   38  A    between atoms: C33_133  and  N33_134 
REMARK   39  A    between atoms: C43_136  and  O43_137 
REMARK   40  A    between atoms: C11_143  and  O11_144 
REMARK   41  A    between atoms: O11_144  and  C42_170 
REMARK   42  A    between atoms: C21_145  and  N21_146 
REMARK   43  A    between atoms: C51_152  and  C61_154 
REMARK   44  A    between atoms: C61_154  and  N61_155 
REMARK   45  A    between atoms: C12_159  and  N12_160 
REMARK   46  A    between atoms: C32_165  and  N32_166 
REMARK   47  A    between atoms: C52_171  and  O52_172 
REMARK   48  A    between atoms: C62_174  and  O62_175 
REMARK   49  A    between atoms: O62_175  and  C13_176 
REMARK   50  A    between atoms: C23_177  and  O23_178 
REMARK   51  A    between atoms: C33_180  and  N33_181 
REMARK   52  A    between atoms: C43_183  and  O43_184 
ROOT
HETATM    1  C12 LLL A1604     166.050 156.130 130.313  1.00 47.31     0.217 C 
HETATM    2  C22 LLL A1604     166.065 157.442 131.105  1.00 45.68     0.071 C 
HETATM    3  C32 LLL A1604     166.888 157.355 132.392  1.00 50.23     0.217 C 
HETATM    4  C42 LLL A1604     168.310 156.813 132.135  1.00 53.35     0.186 C 
HETATM    5  C52 LLL A1604     168.313 155.582 131.220  1.00 51.56     0.180 C 
HETATM    6  C62 LLL A1604     167.485 155.745 129.959  1.00 47.69     0.186 C 
ENDROOT
BRANCH   4   7
HETATM    7  O11 LLL A1604     168.802 156.457 133.451  1.00 57.11    -0.349 OA
BRANCH   7   8
HETATM    8  C11 LLL A1604     170.071 156.884 133.870  1.00 66.19     0.291 C 
HETATM    9  C21 LLL A1604     170.810 155.733 134.564  1.00 67.43     0.238 C 
HETATM   10  C31 LLL A1604     170.224 155.396 135.931  1.00 71.89     0.040 C 
HETATM   11  C41 LLL A1604     170.066 156.659 136.779  1.00 71.39     0.036 C 
HETATM   12  C51 LLL A1604     169.298 157.724 136.013  1.00 74.51     0.150 C 
HETATM   13  O51 LLL A1604     169.950 157.994 134.761  1.00 67.26    -0.352 OA
BRANCH   9  14
HETATM   14  N21 LLL A1604     170.868 154.519 133.732  1.00 70.18    -0.070 N 
ATOM     15 3H21 LLL A1604     170.147 153.852 134.006  1.00  0.00     0.274 HD
ATOM     16 2H21 LLL A1604     170.559 154.712 132.780  1.00  0.00     0.274 HD
ATOM     17 1H21 LLL A1604     171.792 154.086 133.739  1.00  0.00     0.274 HD
ENDBRANCH   9  14
BRANCH  12  18
HETATM   18  C61 LLL A1604     169.190 159.042 136.758  1.00 78.49     0.261 C 
BRANCH  18  19
HETATM   19  N61 LLL A1604     169.523 158.923 138.179  1.00 77.35    -0.077 N 
ATOM     20 3H61 LLL A1604     169.148 159.709 138.709  1.00  0.00     0.274 HD
ATOM     21 2H61 LLL A1604     168.998 158.164 138.614  1.00  0.00     0.274 HD
ATOM     22 1H61 LLL A1604     170.525 158.816 138.345  1.00  0.00     0.274 HD
ENDBRANCH  18  19
ENDBRANCH  12  18
ENDBRANCH   7   8
ENDBRANCH   4   7
BRANCH   3  23
HETATM   23  N32 LLL A1604     166.906 158.660 133.070  1.00 47.88    -0.072 N 
ATOM     24 3H32 LLL A1604     167.206 158.581 134.041  1.00  0.00     0.274 HD
ATOM     25 2H32 LLL A1604     167.659 159.257 132.728  1.00  0.00     0.274 HD
ATOM     26 1H32 LLL A1604     165.994 159.110 132.987  1.00  0.00     0.274 HD
ENDBRANCH   3  23
BRANCH   5  27
HETATM   27  O52 LLL A1604     169.651 155.351 130.779  1.00 53.03    -0.390 OA
ATOM     28  H52 LLL A1604     169.654 154.582 130.221  1.00  0.00     0.210 HD
ENDBRANCH   5  27
BRANCH   6  29
HETATM   29  O62 LLL A1604     167.500 154.485 129.267  1.00 46.32    -0.349 OA
BRANCH  29  30
HETATM   30  C13 LLL A1604     167.638 153.279 129.960  1.00 45.50     0.291 C 
HETATM   31  C23 LLL A1604     168.514 152.356 129.120  1.00 49.71     0.198 C 
HETATM   32  C33 LLL A1604     167.811 151.925 127.834  1.00 50.96     0.146 C 
HETATM   33  C43 LLL A1604     166.357 151.452 128.082  1.00 47.44     0.098 C 
HETATM   34  C53 LLL A1604     165.609 152.419 129.000  1.00 45.44     0.210 C 
HETATM   35  C83 LLL A1604     165.580 151.269 126.783  1.00 50.41     0.050 C 
HETATM   36  O53 LLL A1604     166.340 152.736 130.193  1.00 41.84    -0.356 OA
BRANCH  31  37
HETATM   37  O23 LLL A1604     169.724 153.009 128.779  1.00 51.21    -0.388 OA
ATOM     38  H23 LLL A1604     170.333 152.968 129.506  1.00  0.00     0.210 HD
ENDBRANCH  31  37
BRANCH  32  39
HETATM   39  N33 LLL A1604     168.622 150.861 127.221  1.00 60.94    -0.416 N 
HETATM   40  C93 LLL A1604     169.083 151.139 125.868  1.00 67.56     0.140 C 
ATOM     41  H33 LLL A1604     168.845 149.993 127.708  1.00  0.00     0.153 HD
ENDBRANCH  32  39
BRANCH  33  42
HETATM   42  O43 LLL A1604     166.426 150.179 128.750  1.00 43.75    -0.386 OA
ATOM     43  H43 LLL A1604     165.658 150.108 129.306  1.00  0.00     0.210 HD
ENDBRANCH  33  42
ENDBRANCH  29  30
ENDBRANCH   6  29
BRANCH   1  44
HETATM   44  N12 LLL A1604     165.199 156.196 129.112  1.00 40.62    -0.072 N 
ATOM     45 3H12 LLL A1604     165.251 157.118 128.678  1.00  0.00     0.274 HD
ATOM     46 2H12 LLL A1604     165.591 155.634 128.356  1.00  0.00     0.274 HD
ATOM     47 1H12 LLL A1604     164.231 155.934 129.297  1.00  0.00     0.274 HD
ENDBRANCH   1  44
TORSDOF 52
ENDMDL
MODEL 4
REMARK VINA RESULT:    -6.537      3.398      8.519
REMARK INTER + INTRA:         -12.069
REMARK INTER:                 -10.318
REMARK INTRA:                  -1.751
REMARK UNBOUND:                -1.901
REMARK WARNING: 32 MAX_TORS EXCEEDED!!!
REMARK  52 active torsions:
REMARK  status: ('A' for Active; 'I' for Inactive)
REMARK    1  A    between atoms: C11_1  and  O11_2 
REMARK    2  A    between atoms: O11_2  and  C42_28 
REMARK    3  A    between atoms: C21_3  and  N21_4 
REMARK    4  A    between atoms: C51_10  and  C61_12 
REMARK    5  A    between atoms: C61_12  and  N61_13 
REMARK    6  A    between atoms: C12_17  and  N12_18 
REMARK    7  A    between atoms: C32_23  and  N32_24 
REMARK    8  A    between atoms: C52_29  and  O52_30 
REMARK    9  A    between atoms: C62_32  and  O62_33 
REMARK   10  A    between atoms: O62_33  and  C13_34 
REMARK   11  A    between atoms: C23_35  and  O23_36 
REMARK   12  A    between atoms: C33_38  and  N33_39 
REMARK   13  A    between atoms: C43_42  and  O43_43 
REMARK   14  A    between atoms: C11_49  and  O11_50 
REMARK   15  A    between atoms: O11_50  and  C42_76 
REMARK   16  A    between atoms: C21_51  and  N21_52 
REMARK   17  A    between atoms: C51_58  and  C61_60 
REMARK   18  A    between atoms: C61_60  and  N61_61 
REMARK   19  A    between atoms: C12_65  and  N12_66 
REMARK   20  A    between atoms: C32_71  and  N32_72 
REMARK   21  A    between atoms: C52_77  and  O52_78 
REMARK   22  A    between atoms: C62_80  and  O62_81 
REMARK   23  A    between atoms: O62_81  and  C13_82 
REMARK   24  A    between atoms: C23_83  and  O23_84 
REMARK   25  A    between atoms: C33_86  and  N33_87 
REMARK   26  A    between atoms: C43_89  and  O43_90 
REMARK   27  A    between atoms: C11_96  and  O11_97 
REMARK   28  A    between atoms: O11_97  and  C42_123 
REMARK   29  A    between atoms: C21_98  and  N21_99 
REMARK   30  A    between atoms: C51_105  and  C61_107 
REMARK   31  A    between atoms: C61_107  and  N61_108 
REMARK   32  A    between atoms: C12_112  and  N12_113 
REMARK   33  A    between atoms: C32_118  and  N32_119 
REMARK   34  A    between atoms: C52_124  and  O52_125 
REMARK   35  A    between atoms: C62_127  and  O62_128 
REMARK   36  A    between atoms: O62_128  and  C13_129 
REMARK   37  A    between atoms: C23_130  and  O23_131 
REMARK   38  A    between atoms: C33_133  and  N33_134 
REMARK   39  A    between atoms: C43_136  and  O43_137 
REMARK   40  A    between atoms: C11_143  and  O11_144 
REMARK   41  A    between atoms: O11_144  and  C42_170 
REMARK   42  A    between atoms: C21_145  and  N21_146 
REMARK   43  A    between atoms: C51_152  and  C61_154 
REMARK   44  A    between atoms: C61_154  and  N61_155 
REMARK   45  A    between atoms: C12_159  and  N12_160 
REMARK   46  A    between atoms: C32_165  and  N32_166 
REMARK   47  A    between atoms: C52_171  and  O52_172 
REMARK   48  A    between atoms: C62_174  and  O62_175 
REMARK   49  A    between atoms: O62_175  and  C13_176 
REMARK   50  A    between atoms: C23_177  and  O23_178 
REMARK   51  A    between atoms: C33_180  and  N33_181 
REMARK   52  A    between atoms: C43_183  and  O43_184 
ROOT
HETATM    1  C12 LLL A1604     168.807 154.263 130.495  1.00 47.31     0.217 C 
HETATM    2  C22 LLL A1604     169.118 155.444 131.420  1.00 45.68     0.071 C 
HETATM    3  C32 LLL A1604     169.738 156.634 130.684  1.00 50.23     0.217 C 
HETATM    4  C42 LLL A1604     168.899 157.059 129.460  1.00 53.35     0.186 C 
HETATM    5  C52 LLL A1604     168.459 155.863 128.607  1.00 51.56     0.180 C 
HETATM    6  C62 LLL A1604     167.845 154.726 129.403  1.00 47.69     0.186 C 
ENDROOT
BRANCH   4   7
HETATM    7  O11 LLL A1604     169.785 157.916 128.698  1.00 57.11    -0.349 OA
BRANCH   7   8
HETATM    8  C11 LLL A1604     169.442 159.256 128.464  1.00 66.19     0.291 C 
HETATM    9  C21 LLL A1604     169.611 159.590 126.977  1.00 67.43     0.238 C 
HETATM   10  C31 LLL A1604     171.074 159.654 126.550  1.00 71.89     0.040 C 
HETATM   11  C41 LLL A1604     171.877 160.543 127.501  1.00 71.39     0.036 C 
HETATM   12  C51 LLL A1604     171.664 160.112 128.942  1.00 74.51     0.150 C 
HETATM   13  O51 LLL A1604     170.261 160.121 129.254  1.00 67.26    -0.352 OA
BRANCH   9  14
HETATM   14  N21 LLL A1604     168.877 158.659 126.104  1.00 70.18    -0.070 N 
ATOM     15 3H21 LLL A1604     169.269 158.652 125.162  1.00  0.00     0.274 HD
ATOM     16 2H21 LLL A1604     169.059 157.690 126.365  1.00  0.00     0.274 HD
ATOM     17 1H21 LLL A1604     167.875 158.852 126.084  1.00  0.00     0.274 HD
ENDBRANCH   9  14
BRANCH  12  18
HETATM   18  C61 LLL A1604     172.354 161.014 129.950  1.00 78.49     0.261 C 
BRANCH  18  19
HETATM   19  N61 LLL A1604     172.265 162.433 129.599  1.00 77.35    -0.077 N 
ATOM     20 3H61 LLL A1604     171.772 162.957 130.322  1.00  0.00     0.274 HD
ATOM     21 2H61 LLL A1604     173.179 162.883 129.661  1.00  0.00     0.274 HD
ATOM     22 1H61 LLL A1604     171.843 162.591 128.683  1.00  0.00     0.274 HD
ENDBRANCH  18  19
ENDBRANCH  12  18
ENDBRANCH   7   8
ENDBRANCH   4   7
BRANCH   3  23
HETATM   23  N32 LLL A1604     169.957 157.748 131.619  1.00 47.88    -0.072 N 
ATOM     24 3H32 LLL A1604     170.653 157.520 132.328  1.00  0.00     0.274 HD
ATOM     25 2H32 LLL A1604     170.443 158.528 131.177  1.00  0.00     0.274 HD
ATOM     26 1H32 LLL A1604     169.071 158.037 132.034  1.00  0.00     0.274 HD
ENDBRANCH   3  23
BRANCH   5  27
HETATM   27  O52 LLL A1604     167.441 156.301 127.707  1.00 53.03    -0.390 OA
ATOM     28  H52 LLL A1604     166.635 156.414 128.198  1.00  0.00     0.210 HD
ENDBRANCH   5  27
BRANCH   6  29
HETATM   29  O62 LLL A1604     167.585 153.649 128.487  1.00 46.32    -0.349 OA
BRANCH  29  30
HETATM   30  C13 LLL A1604     166.298 153.407 127.998  1.00 45.50     0.291 C 
HETATM   31  C23 LLL A1604     165.983 151.933 128.225  1.00 49.71     0.198 C 
HETATM   32  C33 LLL A1604     166.848 151.027 127.350  1.00 50.96     0.146 C 
HETATM   33  C43 LLL A1604     166.899 151.499 125.876  1.00 47.44     0.098 C 
HETATM   34  C53 LLL A1604     167.143 153.005 125.783  1.00 45.44     0.210 C 
HETATM   35  C83 LLL A1604     167.957 150.755 125.068  1.00 50.41     0.050 C 
HETATM   36  O53 LLL A1604     166.259 153.767 126.618  1.00 41.84    -0.356 OA
BRANCH  31  37
HETATM   37  O23 LLL A1604     166.196 151.592 129.583  1.00 51.21    -0.388 OA
ATOM     38  H23 LLL A1604     165.979 150.680 129.729  1.00  0.00     0.210 HD
ENDBRANCH  31  37
BRANCH  32  39
HETATM   39  N33 LLL A1604     166.311 149.662 127.457  1.00 60.94    -0.416 N 
HETATM   40  C93 LLL A1604     167.306 148.622 127.677  1.00 67.56     0.140 C 
ATOM     41  H33 LLL A1604     165.314 149.458 127.382  1.00  0.00     0.153 HD
ENDBRANCH  32  39
BRANCH  33  42
HETATM   42  O43 LLL A1604     165.612 151.227 125.292  1.00 43.75    -0.386 OA
ATOM     43  H43 LLL A1604     165.740 151.134 124.355  1.00  0.00     0.210 HD
ENDBRANCH  33  42
ENDBRANCH  29  30
ENDBRANCH   6  29
BRANCH   1  44
HETATM   44  N12 LLL A1604     168.278 153.094 131.217  1.00 40.62    -0.072 N 
ATOM     45 3H12 LLL A1604     168.662 153.043 132.161  1.00  0.00     0.274 HD
ATOM     46 2H12 LLL A1604     167.292 153.222 131.446  1.00  0.00     0.274 HD
ATOM     47 1H12 LLL A1604     168.426 152.218 130.716  1.00  0.00     0.274 HD
ENDBRANCH   1  44
TORSDOF 52
ENDMDL
MODEL 5
REMARK VINA RESULT:    -6.419      2.091      3.317
REMARK INTER + INTRA:         -11.885
REMARK INTER:                 -10.029
REMARK INTRA:                  -1.856
REMARK UNBOUND:                -1.901
REMARK WARNING: 32 MAX_TORS EXCEEDED!!!
REMARK  52 active torsions:
REMARK  status: ('A' for Active; 'I' for Inactive)
REMARK    1  A    between atoms: C11_1  and  O11_2 
REMARK    2  A    between atoms: O11_2  and  C42_28 
REMARK    3  A    between atoms: C21_3  and  N21_4 
REMARK    4  A    between atoms: C51_10  and  C61_12 
REMARK    5  A    between atoms: C61_12  and  N61_13 
REMARK    6  A    between atoms: C12_17  and  N12_18 
REMARK    7  A    between atoms: C32_23  and  N32_24 
REMARK    8  A    between atoms: C52_29  and  O52_30 
REMARK    9  A    between atoms: C62_32  and  O62_33 
REMARK   10  A    between atoms: O62_33  and  C13_34 
REMARK   11  A    between atoms: C23_35  and  O23_36 
REMARK   12  A    between atoms: C33_38  and  N33_39 
REMARK   13  A    between atoms: C43_42  and  O43_43 
REMARK   14  A    between atoms: C11_49  and  O11_50 
REMARK   15  A    between atoms: O11_50  and  C42_76 
REMARK   16  A    between atoms: C21_51  and  N21_52 
REMARK   17  A    between atoms: C51_58  and  C61_60 
REMARK   18  A    between atoms: C61_60  and  N61_61 
REMARK   19  A    between atoms: C12_65  and  N12_66 
REMARK   20  A    between atoms: C32_71  and  N32_72 
REMARK   21  A    between atoms: C52_77  and  O52_78 
REMARK   22  A    between atoms: C62_80  and  O62_81 
REMARK   23  A    between atoms: O62_81  and  C13_82 
REMARK   24  A    between atoms: C23_83  and  O23_84 
REMARK   25  A    between atoms: C33_86  and  N33_87 
REMARK   26  A    between atoms: C43_89  and  O43_90 
REMARK   27  A    between atoms: C11_96  and  O11_97 
REMARK   28  A    between atoms: O11_97  and  C42_123 
REMARK   29  A    between atoms: C21_98  and  N21_99 
REMARK   30  A    between atoms: C51_105  and  C61_107 
REMARK   31  A    between atoms: C61_107  and  N61_108 
REMARK   32  A    between atoms: C12_112  and  N12_113 
REMARK   33  A    between atoms: C32_118  and  N32_119 
REMARK   34  A    between atoms: C52_124  and  O52_125 
REMARK   35  A    between atoms: C62_127  and  O62_128 
REMARK   36  A    between atoms: O62_128  and  C13_129 
REMARK   37  A    between atoms: C23_130  and  O23_131 
REMARK   38  A    between atoms: C33_133  and  N33_134 
REMARK   39  A    between atoms: C43_136  and  O43_137 
REMARK   40  A    between atoms: C11_143  and  O11_144 
REMARK   41  A    between atoms: O11_144  and  C42_170 
REMARK   42  A    between atoms: C21_145  and  N21_146 
REMARK   43  A    between atoms: C51_152  and  C61_154 
REMARK   44  A    between atoms: C61_154  and  N61_155 
REMARK   45  A    between atoms: C12_159  and  N12_160 
REMARK   46  A    between atoms: C32_165  and  N32_166 
REMARK   47  A    between atoms: C52_171  and  O52_172 
REMARK   48  A    between atoms: C62_174  and  O62_175 
REMARK   49  A    between atoms: O62_175  and  C13_176 
REMARK   50  A    between atoms: C23_177  and  O23_178 
REMARK   51  A    between atoms: C33_180  and  N33_181 
REMARK   52  A    between atoms: C43_183  and  O43_184 
ROOT
HETATM    1  C12 LLL A1604     169.536 158.167 130.809  1.00 47.31     0.217 C 
HETATM    2  C22 LLL A1604     169.444 156.801 131.495  1.00 45.68     0.071 C 
HETATM    3  C32 LLL A1604     169.006 155.683 130.547  1.00 50.23     0.217 C 
HETATM    4  C42 LLL A1604     169.870 155.635 129.268  1.00 53.35     0.186 C 
HETATM    5  C52 LLL A1604     170.088 157.024 128.656  1.00 51.56     0.180 C 
HETATM    6  C62 LLL A1604     170.531 158.079 129.654  1.00 47.69     0.186 C 
ENDROOT
BRANCH   4   7
HETATM    7  O11 LLL A1604     169.114 154.802 128.355  1.00 57.11    -0.349 OA
BRANCH   7   8
HETATM    8  C11 LLL A1604     169.523 153.484 128.098  1.00 66.19     0.291 C 
HETATM    9  C21 LLL A1604     169.757 153.290 126.595  1.00 67.43     0.238 C 
HETATM   10  C31 LLL A1604     168.459 153.283 125.793  1.00 71.89     0.040 C 
HETATM   11  C41 LLL A1604     167.445 152.320 126.413  1.00 71.39     0.036 C 
HETATM   12  C51 LLL A1604     167.265 152.615 127.893  1.00 74.51     0.150 C 
HETATM   13  O51 LLL A1604     168.536 152.561 128.562  1.00 67.26    -0.352 OA
BRANCH   9  14
HETATM   14  N21 LLL A1604     170.684 154.289 126.036  1.00 70.18    -0.070 N 
ATOM     15 3H21 LLL A1604     170.180 155.007 125.516  1.00  0.00     0.274 HD
ATOM     16 2H21 LLL A1604     171.084 154.870 126.772  1.00  0.00     0.274 HD
ATOM     17 1H21 LLL A1604     171.414 153.865 125.464  1.00  0.00     0.274 HD
ENDBRANCH   9  14
BRANCH  12  18
HETATM   18  C61 LLL A1604     166.345 151.632 128.595  1.00 78.49     0.261 C 
BRANCH  18  19
HETATM   19  N61 LLL A1604     166.735 150.236 128.385  1.00 77.35    -0.077 N 
ATOM     20 3H61 LLL A1604     167.739 150.159 128.224  1.00  0.00     0.274 HD
ATOM     21 2H61 LLL A1604     166.664 149.703 129.252  1.00  0.00     0.274 HD
ATOM     22 1H61 LLL A1604     166.209 149.785 127.635  1.00  0.00     0.274 HD
ENDBRANCH  18  19
ENDBRANCH  12  18
ENDBRANCH   7   8
ENDBRANCH   4   7
BRANCH   3  23
HETATM   23  N32 LLL A1604     168.994 154.394 131.255  1.00 47.88    -0.072 N 
ATOM     24 3H32 LLL A1604     168.082 154.192 131.666  1.00  0.00     0.274 HD
ATOM     25 2H32 LLL A1604     169.047 153.604 130.612  1.00  0.00     0.274 HD
ATOM     26 1H32 LLL A1604     169.739 154.370 131.952  1.00  0.00     0.274 HD
ENDBRANCH   3  23
BRANCH   5  27
HETATM   27  O52 LLL A1604     171.139 156.933 127.695  1.00 53.03    -0.390 OA
ATOM     28  H52 LLL A1604     171.968 157.049 128.145  1.00  0.00     0.210 HD
ENDBRANCH   5  27
BRANCH   6  29
HETATM   29  O62 LLL A1604     170.589 159.335 128.957  1.00 46.32    -0.349 OA
BRANCH  29  30
HETATM   30  C13 LLL A1604     171.774 160.074 128.892  1.00 45.50     0.291 C 
HETATM   31  C23 LLL A1604     171.421 161.541 129.116  1.00 49.71     0.198 C 
HETATM   32  C33 LLL A1604     170.607 162.111 127.956  1.00 50.96     0.146 C 
HETATM   33  C43 LLL A1604     171.212 161.753 126.575  1.00 47.44     0.098 C 
HETATM   34  C53 LLL A1604     171.596 160.275 126.504  1.00 45.44     0.210 C 
HETATM   35  C83 LLL A1604     170.271 162.098 125.426  1.00 50.41     0.050 C 
HETATM   36  O53 LLL A1604     172.384 159.847 127.624  1.00 41.84    -0.356 OA
BRANCH  31  37
HETATM   37  O23 LLL A1604     170.673 161.685 130.310  1.00 51.21    -0.388 OA
ATOM     38  H23 LLL A1604     171.246 161.629 131.064  1.00  0.00     0.210 HD
ENDBRANCH  31  37
BRANCH  32  39
HETATM   39  N33 LLL A1604     170.527 163.568 128.144  1.00 60.94    -0.416 N 
HETATM   40  C93 LLL A1604     169.178 164.099 128.278  1.00 67.56     0.140 C 
ATOM     41  H33 LLL A1604     171.355 164.162 128.178  1.00  0.00     0.153 HD
ENDBRANCH  32  39
BRANCH  33  42
HETATM   42  O43 LLL A1604     172.416 162.527 126.419  1.00 43.75    -0.386 OA
ATOM     43  H43 LLL A1604     172.214 163.252 125.839  1.00  0.00     0.210 HD
ENDBRANCH  33  42
ENDBRANCH  29  30
ENDBRANCH   6  29
BRANCH   1  44
HETATM   44  N12 LLL A1604     169.889 159.253 131.740  1.00 40.62    -0.072 N 
ATOM     45 3H12 LLL A1604     169.714 158.976 132.706  1.00  0.00     0.274 HD
ATOM     46 2H12 LLL A1604     170.900 159.381 131.785  1.00  0.00     0.274 HD
ATOM     47 1H12 LLL A1604     169.418 160.131 131.521  1.00  0.00     0.274 HD
ENDBRANCH   1  44
TORSDOF 52
ENDMDL
MODEL 6
REMARK VINA RESULT:    -6.242      5.192      7.136
REMARK INTER + INTRA:         -11.610
REMARK INTER:                  -9.983
REMARK INTRA:                  -1.628
REMARK UNBOUND:                -1.901
REMARK WARNING: 32 MAX_TORS EXCEEDED!!!
REMARK  52 active torsions:
REMARK  status: ('A' for Active; 'I' for Inactive)
REMARK    1  A    between atoms: C11_1  and  O11_2 
REMARK    2  A    between atoms: O11_2  and  C42_28 
REMARK    3  A    between atoms: C21_3  and  N21_4 
REMARK    4  A    between atoms: C51_10  and  C61_12 
REMARK    5  A    between atoms: C61_12  and  N61_13 
REMARK    6  A    between atoms: C12_17  and  N12_18 
REMARK    7  A    between atoms: C32_23  and  N32_24 
REMARK    8  A    between atoms: C52_29  and  O52_30 
REMARK    9  A    between atoms: C62_32  and  O62_33 
REMARK   10  A    between atoms: O62_33  and  C13_34 
REMARK   11  A    between atoms: C23_35  and  O23_36 
REMARK   12  A    between atoms: C33_38  and  N33_39 
REMARK   13  A    between atoms: C43_42  and  O43_43 
REMARK   14  A    between atoms: C11_49  and  O11_50 
REMARK   15  A    between atoms: O11_50  and  C42_76 
REMARK   16  A    between atoms: C21_51  and  N21_52 
REMARK   17  A    between atoms: C51_58  and  C61_60 
REMARK   18  A    between atoms: C61_60  and  N61_61 
REMARK   19  A    between atoms: C12_65  and  N12_66 
REMARK   20  A    between atoms: C32_71  and  N32_72 
REMARK   21  A    between atoms: C52_77  and  O52_78 
REMARK   22  A    between atoms: C62_80  and  O62_81 
REMARK   23  A    between atoms: O62_81  and  C13_82 
REMARK   24  A    between atoms: C23_83  and  O23_84 
REMARK   25  A    between atoms: C33_86  and  N33_87 
REMARK   26  A    between atoms: C43_89  and  O43_90 
REMARK   27  A    between atoms: C11_96  and  O11_97 
REMARK   28  A    between atoms: O11_97  and  C42_123 
REMARK   29  A    between atoms: C21_98  and  N21_99 
REMARK   30  A    between atoms: C51_105  and  C61_107 
REMARK   31  A    between atoms: C61_107  and  N61_108 
REMARK   32  A    between atoms: C12_112  and  N12_113 
REMARK   33  A    between atoms: C32_118  and  N32_119 
REMARK   34  A    between atoms: C52_124  and  O52_125 
REMARK   35  A    between atoms: C62_127  and  O62_128 
REMARK   36  A    between atoms: O62_128  and  C13_129 
REMARK   37  A    between atoms: C23_130  and  O23_131 
REMARK   38  A    between atoms: C33_133  and  N33_134 
REMARK   39  A    between atoms: C43_136  and  O43_137 
REMARK   40  A    between atoms: C11_143  and  O11_144 
REMARK   41  A    between atoms: O11_144  and  C42_170 
REMARK   42  A    between atoms: C21_145  and  N21_146 
REMARK   43  A    between atoms: C51_152  and  C61_154 
REMARK   44  A    between atoms: C61_154  and  N61_155 
REMARK   45  A    between atoms: C12_159  and  N12_160 
REMARK   46  A    between atoms: C32_165  and  N32_166 
REMARK   47  A    between atoms: C52_171  and  O52_172 
REMARK   48  A    between atoms: C62_174  and  O62_175 
REMARK   49  A    between atoms: O62_175  and  C13_176 
REMARK   50  A    between atoms: C23_177  and  O23_178 
REMARK   51  A    between atoms: C33_180  and  N33_181 
REMARK   52  A    between atoms: C43_183  and  O43_184 
ROOT
HETATM    1  C12 LLL A1604     166.426 157.151 130.960  1.00 47.31     0.217 C 
HETATM    2  C22 LLL A1604     165.660 156.730 129.702  1.00 45.68     0.071 C 
HETATM    3  C32 LLL A1604     166.404 155.684 128.870  1.00 50.23     0.217 C 
HETATM    4  C42 LLL A1604     166.841 154.470 129.719  1.00 53.35     0.186 C 
HETATM    5  C52 LLL A1604     167.478 154.886 131.050  1.00 51.56     0.180 C 
HETATM    6  C62 LLL A1604     166.679 155.918 131.825  1.00 47.69     0.186 C 
ENDROOT
BRANCH   4   7
HETATM    7  O11 LLL A1604     167.814 153.786 128.893  1.00 57.11    -0.349 OA
BRANCH   7   8
HETATM    8  C11 LLL A1604     167.639 152.431 128.571  1.00 66.19     0.291 C 
HETATM    9  C21 LLL A1604     169.002 151.761 128.360  1.00 67.43     0.238 C 
HETATM   10  C31 LLL A1604     169.687 152.211 127.074  1.00 71.89     0.040 C 
HETATM   11  C41 LLL A1604     168.731 152.104 125.885  1.00 71.39     0.036 C 
HETATM   12  C51 LLL A1604     167.426 152.823 126.184  1.00 74.51     0.150 C 
HETATM   13  O51 LLL A1604     166.844 152.302 127.390  1.00 67.26    -0.352 OA
BRANCH   9  14
HETATM   14  N21 LLL A1604     169.908 151.957 129.504  1.00 70.18    -0.070 N 
ATOM     15 3H21 LLL A1604     170.620 152.657 129.293  1.00  0.00     0.274 HD
ATOM     16 2H21 LLL A1604     169.433 152.432 130.271  1.00  0.00     0.274 HD
ATOM     17 1H21 LLL A1604     170.333 151.084 129.819  1.00  0.00     0.274 HD
ENDBRANCH   9  14
BRANCH  12  18
HETATM   18  C61 LLL A1604     166.390 152.674 125.083  1.00 78.49     0.261 C 
BRANCH  18  19
HETATM   19  N61 LLL A1604     165.450 151.578 125.330  1.00 77.35    -0.077 N 
ATOM     20 3H61 LLL A1604     164.519 151.937 125.541  1.00  0.00     0.274 HD
ATOM     21 2H61 LLL A1604     165.243 151.074 124.468  1.00  0.00     0.274 HD
ATOM     22 1H61 LLL A1604     165.768 150.938 126.059  1.00  0.00     0.274 HD
ENDBRANCH  18  19
ENDBRANCH  12  18
ENDBRANCH   7   8
ENDBRANCH   4   7
BRANCH   3  23
HETATM   23  N32 LLL A1604     165.589 155.286 127.712  1.00 47.88    -0.072 N 
ATOM     24 3H32 LLL A1604     165.126 156.084 127.279  1.00  0.00     0.274 HD
ATOM     25 2H32 LLL A1604     166.165 154.998 126.920  1.00  0.00     0.274 HD
ATOM     26 1H32 LLL A1604     164.925 154.560 127.984  1.00  0.00     0.274 HD
ENDBRANCH   3  23
BRANCH   5  27
HETATM   27  O52 LLL A1604     167.549 153.736 131.894  1.00 53.03    -0.390 OA
ATOM     28  H52 LLL A1604     167.304 152.974 131.383  1.00  0.00     0.210 HD
ENDBRANCH   5  27
BRANCH   6  29
HETATM   29  O62 LLL A1604     167.450 156.279 132.984  1.00 46.32    -0.349 OA
BRANCH  29  30
HETATM   30  C13 LLL A1604     168.667 156.956 132.863  1.00 45.50     0.291 C 
HETATM   31  C23 LLL A1604     169.650 156.328 133.845  1.00 49.71     0.198 C 
HETATM   32  C33 LLL A1604     169.256 156.606 135.295  1.00 50.96     0.146 C 
HETATM   33  C43 LLL A1604     168.897 158.093 135.538  1.00 47.44     0.098 C 
HETATM   34  C53 LLL A1604     167.971 158.627 134.444  1.00 45.44     0.210 C 
HETATM   35  C83 LLL A1604     168.262 158.318 136.906  1.00 50.41     0.050 C 
HETATM   36  O53 LLL A1604     168.446 158.341 133.121  1.00 41.84    -0.356 OA
BRANCH  31  37
HETATM   37  O23 LLL A1604     169.706 154.927 133.650  1.00 51.21    -0.388 OA
ATOM     38  H23 LLL A1604     168.840 154.549 133.740  1.00  0.00     0.210 HD
ENDBRANCH  31  37
BRANCH  32  39
HETATM   39  N33 LLL A1604     170.375 156.179 136.149  1.00 60.94    -0.416 N 
HETATM   40  C93 LLL A1604     170.005 155.332 137.273  1.00 67.56     0.140 C 
ATOM     41  H33 LLL A1604     171.339 156.456 135.966  1.00  0.00     0.153 HD
ENDBRANCH  32  39
BRANCH  33  42
HETATM   42  O43 LLL A1604     170.122 158.847 135.481  1.00 43.75    -0.386 OA
ATOM     43  H43 LLL A1604     170.143 159.290 134.640  1.00  0.00     0.210 HD
ENDBRANCH  33  42
ENDBRANCH  29  30
ENDBRANCH   6  29
BRANCH   1  44
HETATM   44  N12 LLL A1604     165.740 158.210 131.721  1.00 40.62    -0.072 N 
ATOM     45 3H12 LLL A1604     165.185 158.802 131.103  1.00  0.00     0.274 HD
ATOM     46 2H12 LLL A1604     164.992 157.820 132.295  1.00  0.00     0.274 HD
ATOM     47 1H12 LLL A1604     166.379 158.770 132.285  1.00  0.00     0.274 HD
ENDBRANCH   1  44
TORSDOF 52
ENDMDL
MODEL 7
REMARK VINA RESULT:    -6.235      5.671      8.508
REMARK INTER + INTRA:         -11.599
REMARK INTER:                  -9.974
REMARK INTRA:                  -1.625
REMARK UNBOUND:                -1.901
REMARK WARNING: 32 MAX_TORS EXCEEDED!!!
REMARK  52 active torsions:
REMARK  status: ('A' for Active; 'I' for Inactive)
REMARK    1  A    between atoms: C11_1  and  O11_2 
REMARK    2  A    between atoms: O11_2  and  C42_28 
REMARK    3  A    between atoms: C21_3  and  N21_4 
REMARK    4  A    between atoms: C51_10  and  C61_12 
REMARK    5  A    between atoms: C61_12  and  N61_13 
REMARK    6  A    between atoms: C12_17  and  N12_18 
REMARK    7  A    between atoms: C32_23  and  N32_24 
REMARK    8  A    between atoms: C52_29  and  O52_30 
REMARK    9  A    between atoms: C62_32  and  O62_33 
REMARK   10  A    between atoms: O62_33  and  C13_34 
REMARK   11  A    between atoms: C23_35  and  O23_36 
REMARK   12  A    between atoms: C33_38  and  N33_39 
REMARK   13  A    between atoms: C43_42  and  O43_43 
REMARK   14  A    between atoms: C11_49  and  O11_50 
REMARK   15  A    between atoms: O11_50  and  C42_76 
REMARK   16  A    between atoms: C21_51  and  N21_52 
REMARK   17  A    between atoms: C51_58  and  C61_60 
REMARK   18  A    between atoms: C61_60  and  N61_61 
REMARK   19  A    between atoms: C12_65  and  N12_66 
REMARK   20  A    between atoms: C32_71  and  N32_72 
REMARK   21  A    between atoms: C52_77  and  O52_78 
REMARK   22  A    between atoms: C62_80  and  O62_81 
REMARK   23  A    between atoms: O62_81  and  C13_82 
REMARK   24  A    between atoms: C23_83  and  O23_84 
REMARK   25  A    between atoms: C33_86  and  N33_87 
REMARK   26  A    between atoms: C43_89  and  O43_90 
REMARK   27  A    between atoms: C11_96  and  O11_97 
REMARK   28  A    between atoms: O11_97  and  C42_123 
REMARK   29  A    between atoms: C21_98  and  N21_99 
REMARK   30  A    between atoms: C51_105  and  C61_107 
REMARK   31  A    between atoms: C61_107  and  N61_108 
REMARK   32  A    between atoms: C12_112  and  N12_113 
REMARK   33  A    between atoms: C32_118  and  N32_119 
REMARK   34  A    between atoms: C52_124  and  O52_125 
REMARK   35  A    between atoms: C62_127  and  O62_128 
REMARK   36  A    between atoms: O62_128  and  C13_129 
REMARK   37  A    between atoms: C23_130  and  O23_131 
REMARK   38  A    between atoms: C33_133  and  N33_134 
REMARK   39  A    between atoms: C43_136  and  O43_137 
REMARK   40  A    between atoms: C11_143  and  O11_144 
REMARK   41  A    between atoms: O11_144  and  C42_170 
REMARK   42  A    between atoms: C21_145  and  N21_146 
REMARK   43  A    between atoms: C51_152  and  C61_154 
REMARK   44  A    between atoms: C61_154  and  N61_155 
REMARK   45  A    between atoms: C12_159  and  N12_160 
REMARK   46  A    between atoms: C32_165  and  N32_166 
REMARK   47  A    between atoms: C52_171  and  O52_172 
REMARK   48  A    between atoms: C62_174  and  O62_175 
REMARK   49  A    between atoms: O62_175  and  C13_176 
REMARK   50  A    between atoms: C23_177  and  O23_178 
REMARK   51  A    between atoms: C33_180  and  N33_181 
REMARK   52  A    between atoms: C43_183  and  O43_184 
ROOT
HETATM    1  C12 LLL A1604     170.034 155.400 134.034  1.00 47.31     0.217 C 
HETATM    2  C22 LLL A1604     170.395 155.423 135.522  1.00 45.68     0.071 C 
HETATM    3  C32 LLL A1604     169.618 156.480 136.310  1.00 50.23     0.217 C 
HETATM    4  C42 LLL A1604     168.095 156.369 136.082  1.00 53.35     0.186 C 
HETATM    5  C52 LLL A1604     167.735 156.197 134.602  1.00 51.56     0.180 C 
HETATM    6  C62 LLL A1604     168.538 155.126 133.888  1.00 47.69     0.186 C 
ENDROOT
BRANCH   4   7
HETATM    7  O11 LLL A1604     167.566 157.622 136.582  1.00 57.11    -0.349 OA
BRANCH   7   8
HETATM    8  C11 LLL A1604     166.956 157.677 137.844  1.00 66.19     0.291 C 
HETATM    9  C21 LLL A1604     165.500 158.140 137.704  1.00 67.43     0.238 C 
HETATM   10  C31 LLL A1604     165.383 159.614 137.333  1.00 71.89     0.040 C 
HETATM   11  C41 LLL A1604     166.242 160.475 138.260  1.00 71.39     0.036 C 
HETATM   12  C51 LLL A1604     167.668 159.952 138.307  1.00 74.51     0.150 C 
HETATM   13  O51 LLL A1604     167.670 158.570 138.701  1.00 67.26    -0.352 OA
BRANCH   9  14
HETATM   14  N21 LLL A1604     164.740 157.322 136.744  1.00 70.18    -0.070 N 
ATOM     15 3H21 LLL A1604     164.776 157.725 135.808  1.00  0.00     0.274 HD
ATOM     16 2H21 LLL A1604     165.213 156.438 136.560  1.00  0.00     0.274 HD
ATOM     17 1H21 LLL A1604     163.776 157.168 137.041  1.00  0.00     0.274 HD
ENDBRANCH   9  14
BRANCH  12  18
HETATM   18  C61 LLL A1604     168.553 160.701 139.287  1.00 78.49     0.261 C 
BRANCH  18  19
HETATM   19  N61 LLL A1604     169.838 160.037 139.516  1.00 77.35    -0.077 N 
ATOM     20 3H61 LLL A1604     170.475 160.645 140.032  1.00  0.00     0.274 HD
ATOM     21 2H61 LLL A1604     169.743 159.282 140.196  1.00  0.00     0.274 HD
ATOM     22 1H61 LLL A1604     170.271 159.701 138.656  1.00  0.00     0.274 HD
ENDBRANCH  18  19
ENDBRANCH  12  18
ENDBRANCH   7   8
ENDBRANCH   4   7
BRANCH   3  23
HETATM   23  N32 LLL A1604     169.972 156.409 137.736  1.00 47.88    -0.072 N 
ATOM     24 3H32 LLL A1604     169.796 155.483 138.127  1.00  0.00     0.274 HD
ATOM     25 2H32 LLL A1604     170.981 156.444 137.881  1.00  0.00     0.274 HD
ATOM     26 1H32 LLL A1604     169.486 157.140 138.255  1.00  0.00     0.274 HD
ENDBRANCH   3  23
BRANCH   5  27
HETATM   27  O52 LLL A1604     166.372 155.783 134.515  1.00 53.03    -0.390 OA
ATOM     28  H52 LLL A1604     165.852 156.338 135.084  1.00  0.00     0.210 HD
ENDBRANCH   5  27
BRANCH   6  29
HETATM   29  O62 LLL A1604     168.164 155.158 132.500  1.00 46.32    -0.349 OA
BRANCH  29  30
HETATM   30  C13 LLL A1604     167.224 154.264 131.981  1.00 45.50     0.291 C 
HETATM   31  C23 LLL A1604     167.870 153.537 130.807  1.00 49.71     0.198 C 
HETATM   32  C33 LLL A1604     168.123 154.476 129.629  1.00 50.96     0.146 C 
HETATM   33  C43 LLL A1604     166.893 155.358 129.298  1.00 47.44     0.098 C 
HETATM   34  C53 LLL A1604     166.289 155.966 130.564  1.00 45.44     0.210 C 
HETATM   35  C83 LLL A1604     167.226 156.463 128.303  1.00 50.41     0.050 C 
HETATM   36  O53 LLL A1604     166.062 154.996 131.597  1.00 41.84    -0.356 OA
BRANCH  31  37
HETATM   37  O23 LLL A1604     169.103 152.966 131.206  1.00 51.21    -0.388 OA
ATOM     38  H23 LLL A1604     169.435 153.411 131.976  1.00  0.00     0.210 HD
ENDBRANCH  31  37
BRANCH  32  39
HETATM   39  N33 LLL A1604     168.514 153.649 128.478  1.00 60.94    -0.416 N 
HETATM   40  C93 LLL A1604     169.819 153.957 127.912  1.00 67.56     0.140 C 
ATOM     41  H33 LLL A1604     167.915 152.913 128.103  1.00  0.00     0.153 HD
ENDBRANCH  32  39
BRANCH  33  42
HETATM   42  O43 LLL A1604     165.898 154.503 128.706  1.00 43.75    -0.386 OA
ATOM     43  H43 LLL A1604     165.436 155.016 128.052  1.00  0.00     0.210 HD
ENDBRANCH  33  42
ENDBRANCH  29  30
ENDBRANCH   6  29
BRANCH   1  44
HETATM   44  N12 LLL A1604     170.835 154.431 133.265  1.00 40.62    -0.072 N 
ATOM     45 3H12 LLL A1604     170.693 154.555 132.262  1.00  0.00     0.274 HD
ATOM     46 2H12 LLL A1604     171.829 154.654 133.320  1.00  0.00     0.274 HD
ATOM     47 1H12 LLL A1604     170.661 153.465 133.541  1.00  0.00     0.274 HD
ENDBRANCH   1  44
TORSDOF 52
ENDMDL
MODEL 8
REMARK VINA RESULT:    -6.204      1.910      4.435
REMARK INTER + INTRA:         -11.550
REMARK INTER:                  -9.493
REMARK INTRA:                  -2.057
REMARK UNBOUND:                -1.901
REMARK WARNING: 32 MAX_TORS EXCEEDED!!!
REMARK  52 active torsions:
REMARK  status: ('A' for Active; 'I' for Inactive)
REMARK    1  A    between atoms: C11_1  and  O11_2 
REMARK    2  A    between atoms: O11_2  and  C42_28 
REMARK    3  A    between atoms: C21_3  and  N21_4 
REMARK    4  A    between atoms: C51_10  and  C61_12 
REMARK    5  A    between atoms: C61_12  and  N61_13 
REMARK    6  A    between atoms: C12_17  and  N12_18 
REMARK    7  A    between atoms: C32_23  and  N32_24 
REMARK    8  A    between atoms: C52_29  and  O52_30 
REMARK    9  A    between atoms: C62_32  and  O62_33 
REMARK   10  A    between atoms: O62_33  and  C13_34 
REMARK   11  A    between atoms: C23_35  and  O23_36 
REMARK   12  A    between atoms: C33_38  and  N33_39 
REMARK   13  A    between atoms: C43_42  and  O43_43 
REMARK   14  A    between atoms: C11_49  and  O11_50 
REMARK   15  A    between atoms: O11_50  and  C42_76 
REMARK   16  A    between atoms: C21_51  and  N21_52 
REMARK   17  A    between atoms: C51_58  and  C61_60 
REMARK   18  A    between atoms: C61_60  and  N61_61 
REMARK   19  A    between atoms: C12_65  and  N12_66 
REMARK   20  A    between atoms: C32_71  and  N32_72 
REMARK   21  A    between atoms: C52_77  and  O52_78 
REMARK   22  A    between atoms: C62_80  and  O62_81 
REMARK   23  A    between atoms: O62_81  and  C13_82 
REMARK   24  A    between atoms: C23_83  and  O23_84 
REMARK   25  A    between atoms: C33_86  and  N33_87 
REMARK   26  A    between atoms: C43_89  and  O43_90 
REMARK   27  A    between atoms: C11_96  and  O11_97 
REMARK   28  A    between atoms: O11_97  and  C42_123 
REMARK   29  A    between atoms: C21_98  and  N21_99 
REMARK   30  A    between atoms: C51_105  and  C61_107 
REMARK   31  A    between atoms: C61_107  and  N61_108 
REMARK   32  A    between atoms: C12_112  and  N12_113 
REMARK   33  A    between atoms: C32_118  and  N32_119 
REMARK   34  A    between atoms: C52_124  and  O52_125 
REMARK   35  A    between atoms: C62_127  and  O62_128 
REMARK   36  A    between atoms: O62_128  and  C13_129 
REMARK   37  A    between atoms: C23_130  and  O23_131 
REMARK   38  A    between atoms: C33_133  and  N33_134 
REMARK   39  A    between atoms: C43_136  and  O43_137 
REMARK   40  A    between atoms: C11_143  and  O11_144 
REMARK   41  A    between atoms: O11_144  and  C42_170 
REMARK   42  A    between atoms: C21_145  and  N21_146 
REMARK   43  A    between atoms: C51_152  and  C61_154 
REMARK   44  A    between atoms: C61_154  and  N61_155 
REMARK   45  A    between atoms: C12_159  and  N12_160 
REMARK   46  A    between atoms: C32_165  and  N32_166 
REMARK   47  A    between atoms: C52_171  and  O52_172 
REMARK   48  A    between atoms: C62_174  and  O62_175 
REMARK   49  A    between atoms: O62_175  and  C13_176 
REMARK   50  A    between atoms: C23_177  and  O23_178 
REMARK   51  A    between atoms: C33_180  and  N33_181 
REMARK   52  A    between atoms: C43_183  and  O43_184 
ROOT
HETATM    1  C12 LLL A1604     170.250 157.019 129.503  1.00 47.31     0.217 C 
HETATM    2  C22 LLL A1604     169.687 155.741 130.131  1.00 45.68     0.071 C 
HETATM    3  C32 LLL A1604     169.474 155.859 131.642  1.00 50.23     0.217 C 
HETATM    4  C42 LLL A1604     168.642 157.105 132.014  1.00 53.35     0.186 C 
HETATM    5  C52 LLL A1604     169.110 158.364 131.274  1.00 51.56     0.180 C 
HETATM    6  C62 LLL A1604     169.290 158.175 129.779  1.00 47.69     0.186 C 
ENDROOT
BRANCH   4   7
HETATM    7  O11 LLL A1604     168.846 157.261 133.440  1.00 57.11    -0.349 OA
BRANCH   7   8
HETATM    8  C11 LLL A1604     170.082 157.706 133.931  1.00 66.19     0.291 C 
HETATM    9  C21 LLL A1604     170.331 157.127 135.329  1.00 67.43     0.238 C 
HETATM   10  C31 LLL A1604     169.430 157.746 136.393  1.00 71.89     0.040 C 
HETATM   11  C41 LLL A1604     169.473 159.272 136.316  1.00 71.39     0.036 C 
HETATM   12  C51 LLL A1604     169.186 159.744 134.900  1.00 74.51     0.150 C 
HETATM   13  O51 LLL A1604     170.109 159.134 133.983  1.00 67.26    -0.352 OA
BRANCH   9  14
HETATM   14  N21 LLL A1604     170.206 155.660 135.361  1.00 70.18    -0.070 N 
ATOM     15 3H21 LLL A1604     170.962 155.215 134.840  1.00  0.00     0.274 HD
ATOM     16 2H21 LLL A1604     170.411 155.294 136.291  1.00  0.00     0.274 HD
ATOM     17 1H21 LLL A1604     169.295 155.339 135.032  1.00  0.00     0.274 HD
ENDBRANCH   9  14
BRANCH  12  18
HETATM   18  C61 LLL A1604     169.309 161.248 134.729  1.00 78.49     0.261 C 
BRANCH  18  19
HETATM   19  N61 LLL A1604     169.208 161.673 133.331  1.00 77.35    -0.077 N 
ATOM     20 3H61 LLL A1604     168.554 161.082 132.817  1.00  0.00     0.274 HD
ATOM     21 2H61 LLL A1604     168.720 162.566 133.255  1.00  0.00     0.274 HD
ATOM     22 1H61 LLL A1604     170.113 161.710 132.860  1.00  0.00     0.274 HD
ENDBRANCH  18  19
ENDBRANCH  12  18
ENDBRANCH   7   8
ENDBRANCH   4   7
BRANCH   3  23
HETATM   23  N32 LLL A1604     168.880 154.620 132.167  1.00 47.88    -0.072 N 
ATOM     24 3H32 LLL A1604     168.038 154.802 132.713  1.00  0.00     0.274 HD
ATOM     25 2H32 LLL A1604     168.461 154.054 131.428  1.00  0.00     0.274 HD
ATOM     26 1H32 LLL A1604     169.575 154.097 132.700  1.00  0.00     0.274 HD
ENDBRANCH   3  23
BRANCH   5  27
HETATM   27  O52 LLL A1604     168.108 159.371 131.419  1.00 53.03    -0.390 OA
ATOM     28  H52 LLL A1604     168.442 160.182 131.053  1.00  0.00     0.210 HD
ENDBRANCH   5  27
BRANCH   6  29
HETATM   29  O62 LLL A1604     169.827 159.399 129.250  1.00 46.32    -0.349 OA
BRANCH  29  30
HETATM   30  C13 LLL A1604     170.794 160.128 129.949  1.00 45.50     0.291 C 
HETATM   31  C23 LLL A1604     170.425 161.604 129.851  1.00 49.71     0.198 C 
HETATM   32  C33 LLL A1604     170.575 162.132 128.426  1.00 50.96     0.146 C 
HETATM   33  C43 LLL A1604     171.918 161.715 127.776  1.00 47.44     0.098 C 
HETATM   34  C53 LLL A1604     172.212 160.233 128.011  1.00 45.44     0.210 C 
HETATM   35  C83 LLL A1604     171.957 162.019 126.283  1.00 50.41     0.050 C 
HETATM   36  O53 LLL A1604     172.073 159.846 129.386  1.00 41.84    -0.356 OA
BRANCH  31  37
HETATM   37  O23 LLL A1604     169.087 161.801 130.271  1.00 51.21    -0.388 OA
ATOM     38  H23 LLL A1604     168.486 161.461 129.619  1.00  0.00     0.210 HD
ENDBRANCH  31  37
BRANCH  32  39
HETATM   39  N33 LLL A1604     170.437 163.595 128.477  1.00 60.94    -0.416 N 
HETATM   40  C93 LLL A1604     169.351 164.141 127.675  1.00 67.56     0.140 C 
ATOM     41  H33 LLL A1604     171.056 164.184 129.034  1.00  0.00     0.153 HD
ENDBRANCH  32  39
BRANCH  33  42
HETATM   42  O43 LLL A1604     172.960 162.474 128.417  1.00 43.75    -0.386 OA
ATOM     43  H43 LLL A1604     172.924 163.357 128.067  1.00  0.00     0.210 HD
ENDBRANCH  33  42
ENDBRANCH  29  30
ENDBRANCH   6  29
BRANCH   1  44
HETATM   44  N12 LLL A1604     170.522 156.879 128.062  1.00 40.62    -0.072 N 
ATOM     45 3H12 LLL A1604     169.690 157.093 127.511  1.00  0.00     0.274 HD
ATOM     46 2H12 LLL A1604     171.135 157.624 127.732  1.00  0.00     0.274 HD
ATOM     47 1H12 LLL A1604     170.895 155.962 127.816  1.00  0.00     0.274 HD
ENDBRANCH   1  44
TORSDOF 52
ENDMDL
MODEL 9
REMARK VINA RESULT:    -6.134      2.659      4.221
REMARK INTER + INTRA:         -11.442
REMARK INTER:                  -9.717
REMARK INTRA:                  -1.726
REMARK UNBOUND:                -1.901
REMARK WARNING: 32 MAX_TORS EXCEEDED!!!
REMARK  52 active torsions:
REMARK  status: ('A' for Active; 'I' for Inactive)
REMARK    1  A    between atoms: C11_1  and  O11_2 
REMARK    2  A    between atoms: O11_2  and  C42_28 
REMARK    3  A    between atoms: C21_3  and  N21_4 
REMARK    4  A    between atoms: C51_10  and  C61_12 
REMARK    5  A    between atoms: C61_12  and  N61_13 
REMARK    6  A    between atoms: C12_17  and  N12_18 
REMARK    7  A    between atoms: C32_23  and  N32_24 
REMARK    8  A    between atoms: C52_29  and  O52_30 
REMARK    9  A    between atoms: C62_32  and  O62_33 
REMARK   10  A    between atoms: O62_33  and  C13_34 
REMARK   11  A    between atoms: C23_35  and  O23_36 
REMARK   12  A    between atoms: C33_38  and  N33_39 
REMARK   13  A    between atoms: C43_42  and  O43_43 
REMARK   14  A    between atoms: C11_49  and  O11_50 
REMARK   15  A    between atoms: O11_50  and  C42_76 
REMARK   16  A    between atoms: C21_51  and  N21_52 
REMARK   17  A    between atoms: C51_58  and  C61_60 
REMARK   18  A    between atoms: C61_60  and  N61_61 
REMARK   19  A    between atoms: C12_65  and  N12_66 
REMARK   20  A    between atoms: C32_71  and  N32_72 
REMARK   21  A    between atoms: C52_77  and  O52_78 
REMARK   22  A    between atoms: C62_80  and  O62_81 
REMARK   23  A    between atoms: O62_81  and  C13_82 
REMARK   24  A    between atoms: C23_83  and  O23_84 
REMARK   25  A    between atoms: C33_86  and  N33_87 
REMARK   26  A    between atoms: C43_89  and  O43_90 
REMARK   27  A    between atoms: C11_96  and  O11_97 
REMARK   28  A    between atoms: O11_97  and  C42_123 
REMARK   29  A    between atoms: C21_98  and  N21_99 
REMARK   30  A    between atoms: C51_105  and  C61_107 
REMARK   31  A    between atoms: C61_107  and  N61_108 
REMARK   32  A    between atoms: C12_112  and  N12_113 
REMARK   33  A    between atoms: C32_118  and  N32_119 
REMARK   34  A    between atoms: C52_124  and  O52_125 
REMARK   35  A    between atoms: C62_127  and  O62_128 
REMARK   36  A    between atoms: O62_128  and  C13_129 
REMARK   37  A    between atoms: C23_130  and  O23_131 
REMARK   38  A    between atoms: C33_133  and  N33_134 
REMARK   39  A    between atoms: C43_136  and  O43_137 
REMARK   40  A    between atoms: C11_143  and  O11_144 
REMARK   41  A    between atoms: O11_144  and  C42_170 
REMARK   42  A    between atoms: C21_145  and  N21_146 
REMARK   43  A    between atoms: C51_152  and  C61_154 
REMARK   44  A    between atoms: C61_154  and  N61_155 
REMARK   45  A    between atoms: C12_159  and  N12_160 
REMARK   46  A    between atoms: C32_165  and  N32_166 
REMARK   47  A    between atoms: C52_171  and  O52_172 
REMARK   48  A    between atoms: C62_174  and  O62_175 
REMARK   49  A    between atoms: O62_175  and  C13_176 
REMARK   50  A    between atoms: C23_177  and  O23_178 
REMARK   51  A    between atoms: C33_180  and  N33_181 
REMARK   52  A    between atoms: C43_183  and  O43_184 
ROOT
HETATM    1  C12 LLL A1604     166.540 157.740 131.010  1.00 47.31     0.217 C 
HETATM    2  C22 LLL A1604     165.704 156.481 131.261  1.00 45.68     0.071 C 
HETATM    3  C32 LLL A1604     165.965 155.375 130.236  1.00 50.23     0.217 C 
HETATM    4  C42 LLL A1604     167.469 155.057 130.097  1.00 53.35     0.186 C 
HETATM    5  C52 LLL A1604     168.329 156.322 129.992  1.00 51.56     0.180 C 
HETATM    6  C62 LLL A1604     168.022 157.370 131.046  1.00 47.69     0.186 C 
ENDROOT
BRANCH   4   7
HETATM    7  O11 LLL A1604     167.562 154.289 128.872  1.00 57.11    -0.349 OA
BRANCH   7   8
HETATM    8  C11 LLL A1604     168.387 153.156 128.810  1.00 66.19     0.291 C 
HETATM    9  C21 LLL A1604     169.377 153.291 127.647  1.00 67.43     0.238 C 
HETATM   10  C31 LLL A1604     168.707 153.156 126.283  1.00 71.89     0.040 C 
HETATM   11  C41 LLL A1604     167.829 151.905 126.234  1.00 71.39     0.036 C 
HETATM   12  C51 LLL A1604     166.866 151.881 127.411  1.00 74.51     0.150 C 
HETATM   13  O51 LLL A1604     167.598 151.977 128.644  1.00 67.26    -0.352 OA
BRANCH   9  14
HETATM   14  N21 LLL A1604     170.145 154.547 127.703  1.00 70.18    -0.070 N 
ATOM     15 3H21 LLL A1604     169.586 155.334 127.373  1.00  0.00     0.274 HD
ATOM     16 2H21 LLL A1604     170.291 154.844 128.668  1.00  0.00     0.274 HD
ATOM     17 1H21 LLL A1604     171.029 154.486 127.199  1.00  0.00     0.274 HD
ENDBRANCH   9  14
BRANCH  12  18
HETATM   18  C61 LLL A1604     166.030 150.616 127.480  1.00 78.49     0.261 C 
BRANCH  18  19
HETATM   19  N61 LLL A1604     166.669 149.552 128.256  1.00 77.35    -0.077 N 
ATOM     20 3H61 LLL A1604     167.311 149.940 128.947  1.00  0.00     0.274 HD
ATOM     21 2H61 LLL A1604     166.000 149.106 128.884  1.00  0.00     0.274 HD
ATOM     22 1H61 LLL A1604     167.138 148.860 127.671  1.00  0.00     0.274 HD
ENDBRANCH  18  19
ENDBRANCH  12  18
ENDBRANCH   7   8
ENDBRANCH   4   7
BRANCH   3  23
HETATM   23  N32 LLL A1604     165.174 154.180 130.570  1.00 47.88    -0.072 N 
ATOM     24 3H32 LLL A1604     165.394 153.395 129.958  1.00  0.00     0.274 HD
ATOM     25 2H32 LLL A1604     165.464 153.766 131.456  1.00  0.00     0.274 HD
ATOM     26 1H32 LLL A1604     164.179 154.405 130.561  1.00  0.00     0.274 HD
ENDBRANCH   3  23
BRANCH   5  27
HETATM   27  O52 LLL A1604     169.694 155.958 130.194  1.00 53.03    -0.390 OA
ATOM     28  H52 LLL A1604     169.777 155.569 131.058  1.00  0.00     0.210 HD
ENDBRANCH   5  27
BRANCH   6  29
HETATM   29  O62 LLL A1604     168.825 158.526 130.754  1.00 46.32    -0.349 OA
BRANCH  29  30
HETATM   30  C13 LLL A1604     169.699 159.061 131.704  1.00 45.50     0.291 C 
HETATM   31  C23 LLL A1604     169.723 160.574 131.515  1.00 49.71     0.198 C 
HETATM   32  C33 LLL A1604     170.383 160.969 130.195  1.00 50.96     0.146 C 
HETATM   33  C43 LLL A1604     171.720 160.225 129.954  1.00 47.44     0.098 C 
HETATM   34  C53 LLL A1604     171.586 158.732 130.253  1.00 45.44     0.210 C 
HETATM   35  C83 LLL A1604     172.243 160.423 128.535  1.00 50.41     0.050 C 
HETATM   36  O53 LLL A1604     170.984 158.468 131.528  1.00 41.84    -0.356 OA
BRANCH  31  37
HETATM   37  O23 LLL A1604     168.404 161.089 131.536  1.00 51.21    -0.388 OA
ATOM     38  H23 LLL A1604     168.424 162.038 131.569  1.00  0.00     0.210 HD
ENDBRANCH  31  37
BRANCH  32  39
HETATM   39  N33 LLL A1604     170.577 162.427 130.215  1.00 60.94    -0.416 N 
HETATM   40  C93 LLL A1604     169.937 163.150 129.125  1.00 67.56     0.140 C 
ATOM     41  H33 LLL A1604     171.121 162.897 130.939  1.00  0.00     0.153 HD
ENDBRANCH  32  39
BRANCH  33  42
HETATM   42  O43 LLL A1604     172.687 160.770 130.871  1.00 43.75    -0.386 OA
ATOM     43  H43 LLL A1604     173.279 161.317 130.367  1.00  0.00     0.210 HD
ENDBRANCH  33  42
ENDBRANCH  29  30
ENDBRANCH   6  29
BRANCH   1  44
HETATM   44  N12 LLL A1604     166.234 158.829 131.954  1.00 40.62    -0.072 N 
ATOM     45 3H12 LLL A1604     167.010 159.489 132.012  1.00  0.00     0.274 HD
ATOM     46 2H12 LLL A1604     165.517 159.448 131.577  1.00  0.00     0.274 HD
ATOM     47 1H12 LLL A1604     165.974 158.489 132.880  1.00  0.00     0.274 HD
ENDBRANCH   1  44
TORSDOF 52
ENDMDL
