MODEL 1
REMARK VINA RESULT:    -7.784      0.000      0.000
REMARK INTER + INTRA:         -16.884
REMARK INTER:                 -13.472
REMARK INTRA:                  -3.412
REMARK UNBOUND:                -3.412
REMARK  16 active torsions:
REMARK  status: ('A' for Active; 'I' for Inactive)
REMARK    1  A    between atoms: C11_1  and  N11_2 
REMARK       I    between atoms: N11_2  and  CA1_4 
REMARK    2  A    between atoms: C21_9  and  O21_10 
REMARK    3  A    between atoms: C31_12  and  N31_13 
REMARK       I    between atoms: N31_13  and  CD1_15 
REMARK    4  A    between atoms: C41_20  and  O41_21 
REMARK    5  A    between atoms: O41_21  and  C12_28 
REMARK    6  A    between atoms: C51_22  and  O51_23 
REMARK    7  A    between atoms: C61_25  and  O61_26 
REMARK    8  A    between atoms: C22_29  and  O13_38 
REMARK    9  A    between atoms: C32_30  and  O32_31 
REMARK   10  A    between atoms: C32_30  and  CG2_33 
REMARK   11  A    between atoms: O13_38  and  C13_39 
REMARK   12  A    between atoms: C23_40  and  N23_41 
REMARK   13  A    between atoms: C33_45  and  O33_46 
REMARK   14  A    between atoms: C43_48  and  O43_49 
REMARK   15  A    between atoms: C53_51  and  C63_53 
REMARK   16  A    between atoms: C63_53  and  O63_54 
ROOT
HETATM    1  C12 SRY A1860     169.839 155.591 131.942  1.00 71.66     0.293 C 
HETATM    2  C22 SRY A1860     169.656 157.083 132.218  1.00 72.81     0.223 C 
HETATM    3  C32 SRY A1860     169.699 157.175 133.715  1.00 79.11     0.166 C 
HETATM    4  C42 SRY A1860     169.701 155.743 134.110  1.00 79.85     0.165 C 
HETATM    5  CH2 SRY A1860     170.315 155.499 135.467  1.00 83.53     0.043 C 
HETATM    6  O42 SRY A1860     170.398 155.031 133.108  1.00 76.91    -0.350 OA
ENDROOT
BRANCH   1   7
HETATM    7  O41 SRY A1860     168.616 154.960 131.630  1.00 69.52    -0.348 OA
BRANCH   7   8
HETATM    8  C41 SRY A1860     168.498 154.531 130.277  1.00 63.72     0.181 C 
HETATM    9  C31 SRY A1860     167.169 155.101 129.872  1.00 61.93     0.146 C 
HETATM   10  C21 SRY A1860     166.866 154.779 128.440  1.00 66.40     0.168 C 
HETATM   11  C11 SRY A1860     166.817 153.310 128.257  1.00 68.38     0.146 C 
HETATM   12  C61 SRY A1860     168.104 152.685 128.691  1.00 66.72     0.174 C 
HETATM   13  C51 SRY A1860     168.480 153.029 130.105  1.00 63.53     0.180 C 
BRANCH   9  14
HETATM   14  N31 SRY A1860     167.123 156.543 130.111  1.00 66.73    -0.355 N 
HETATM   15  CD1 SRY A1860     165.926 157.202 130.696  1.00 75.39     0.182 C 
HETATM   16  NE1 SRY A1860     164.784 156.390 131.016  1.00 81.29    -0.064 NA
HETATM   17  NF1 SRY A1860     165.863 158.526 130.930  1.00 77.61    -0.374 N 
ATOM     18 2HF1 SRY A1860     166.674 159.102 130.702  1.00  0.00     0.158 HD
ATOM     19 1HF1 SRY A1860     165.041 158.979 131.331  1.00  0.00     0.158 HD
ATOM     20  H31 SRY A1860     167.935 157.112 129.870  1.00  0.00     0.162 HD
ENDBRANCH   9  14
BRANCH  10  21
HETATM   21  O21 SRY A1860     165.637 155.294 128.061  1.00 71.96    -0.391 OA
ATOM     22  H21 SRY A1860     165.218 154.657 127.496  1.00  0.00     0.210 HD
ENDBRANCH  10  21
BRANCH  11  23
HETATM   23  N11 SRY A1860     166.745 152.971 126.871  1.00 76.44    -0.355 N 
HETATM   24  CA1 SRY A1860     165.827 151.957 126.385  1.00 85.70     0.182 C 
HETATM   25  NB1 SRY A1860     164.958 151.288 127.331  1.00 93.50    -0.064 NA
HETATM   26  NC1 SRY A1860     165.777 151.648 125.115  1.00 85.31    -0.374 N 
ATOM     27 2HC1 SRY A1860     166.390 152.119 124.449  1.00  0.00     0.158 HD
ATOM     28 1HC1 SRY A1860     165.132 150.935 124.773  1.00  0.00     0.158 HD
ATOM     29  H11 SRY A1860     167.352 153.453 126.207  1.00  0.00     0.162 HD
ENDBRANCH  11  23
BRANCH  12  30
HETATM   30  O61 SRY A1860     168.049 151.290 128.531  1.00 66.42    -0.391 OA
ATOM     31  H61 SRY A1860     167.282 151.046 128.026  1.00  0.00     0.210 HD
ENDBRANCH  12  30
BRANCH  13  32
HETATM   32  O51 SRY A1860     169.711 152.501 130.376  1.00 60.11    -0.390 OA
ATOM     33  H51 SRY A1860     170.157 153.019 131.037  1.00  0.00     0.210 HD
ENDBRANCH  13  32
ENDBRANCH   7   8
ENDBRANCH   1   7
BRANCH   2  34
HETATM   34  O13 SRY A1860     170.598 157.865 131.525  1.00 74.96    -0.345 OA
BRANCH  34  35
HETATM   35  C13 SRY A1860     169.799 158.677 130.701  1.00 82.06     0.294 C 
HETATM   36  C23 SRY A1860     170.227 160.133 130.665  1.00 88.41     0.271 C 
HETATM   37  C33 SRY A1860     171.627 160.183 130.066  1.00 94.07     0.185 C 
HETATM   38  C43 SRY A1860     171.495 159.576 128.709  1.00 94.04     0.180 C 
HETATM   39  C53 SRY A1860     170.898 158.195 128.762  1.00 90.34     0.179 C 
HETATM   40  O53 SRY A1860     169.716 158.119 129.420  1.00 82.16    -0.349 OA
BRANCH  36  41
HETATM   41  N23 SRY A1860     170.222 160.721 131.958  1.00 86.34    -0.068 N 
HETATM   42  CI3 SRY A1860     168.868 161.028 132.282  1.00 84.88     0.267 C 
ATOM     43 2H23 SRY A1860     170.678 160.140 132.662  1.00  0.00     0.277 HD
ATOM     44 1H23 SRY A1860     170.841 161.528 132.031  1.00  0.00     0.277 HD
ENDBRANCH  36  41
BRANCH  37  45
HETATM   45  O33 SRY A1860     172.112 161.482 130.026  1.00 97.34    -0.391 OA
ATOM     46  H33 SRY A1860     171.784 161.996 130.755  1.00  0.00     0.210 HD
ENDBRANCH  37  45
BRANCH  38  47
HETATM   47  O43 SRY A1860     172.721 159.492 128.082  1.00 95.04    -0.390 OA
ATOM     48  H43 SRY A1860     173.424 159.725 128.676  1.00  0.00     0.210 HD
ENDBRANCH  38  47
BRANCH  39  49
HETATM   49  C63 SRY A1860     170.606 157.787 127.355  1.00 97.11     0.198 C 
BRANCH  49  50
HETATM   50  O63 SRY A1860     171.610 156.872 126.890  1.00101.73    -0.398 OA
ATOM     51  H63 SRY A1860     172.471 157.167 127.162  1.00  0.00     0.209 HD
ENDBRANCH  49  50
ENDBRANCH  39  49
ENDBRANCH  34  35
ENDBRANCH   2  34
BRANCH   3  52
HETATM   52  O32 SRY A1860     170.861 157.759 134.220  1.00 83.76    -0.377 OA
ATOM     53  H32 SRY A1860     171.665 157.406 133.856  1.00  0.00     0.211 HD
ENDBRANCH   3  52
BRANCH   3  54
HETATM   54  CG2 SRY A1860     168.524 157.871 134.266  1.00 85.27     0.274 C 
HETATM   55  OG2 SRY A1860     167.530 157.950 133.575  1.00 91.11    -0.303 OA
ENDBRANCH   3  54
TORSDOF 16
ENDMDL
MODEL 2
REMARK VINA RESULT:    -7.760      2.556      7.159
REMARK INTER + INTRA:         -16.843
REMARK INTER:                 -14.988
REMARK INTRA:                  -1.855
REMARK UNBOUND:                -3.412
REMARK  16 active torsions:
REMARK  status: ('A' for Active; 'I' for Inactive)
REMARK    1  A    between atoms: C11_1  and  N11_2 
REMARK       I    between atoms: N11_2  and  CA1_4 
REMARK    2  A    between atoms: C21_9  and  O21_10 
REMARK    3  A    between atoms: C31_12  and  N31_13 
REMARK       I    between atoms: N31_13  and  CD1_15 
REMARK    4  A    between atoms: C41_20  and  O41_21 
REMARK    5  A    between atoms: O41_21  and  C12_28 
REMARK    6  A    between atoms: C51_22  and  O51_23 
REMARK    7  A    between atoms: C61_25  and  O61_26 
REMARK    8  A    between atoms: C22_29  and  O13_38 
REMARK    9  A    between atoms: C32_30  and  O32_31 
REMARK   10  A    between atoms: C32_30  and  CG2_33 
REMARK   11  A    between atoms: O13_38  and  C13_39 
REMARK   12  A    between atoms: C23_40  and  N23_41 
REMARK   13  A    between atoms: C33_45  and  O33_46 
REMARK   14  A    between atoms: C43_48  and  O43_49 
REMARK   15  A    between atoms: C53_51  and  C63_53 
REMARK   16  A    between atoms: C63_53  and  O63_54 
ROOT
HETATM    1  C12 SRY A1860     169.567 156.977 131.838  1.00 71.66     0.293 C 
HETATM    2  C22 SRY A1860     169.600 155.583 132.464  1.00 72.81     0.223 C 
HETATM    3  C32 SRY A1860     169.839 155.856 133.920  1.00 79.11     0.166 C 
HETATM    4  C42 SRY A1860     170.105 157.317 133.920  1.00 79.85     0.165 C 
HETATM    5  CH2 SRY A1860     169.808 157.979 135.243  1.00 83.53     0.043 C 
HETATM    6  O42 SRY A1860     169.327 157.886 132.887  1.00 76.91    -0.350 OA
ENDROOT
BRANCH   1   7
HETATM    7  O41 SRY A1860     170.778 157.288 131.183  1.00 69.52    -0.348 OA
BRANCH   7   8
HETATM    8  C41 SRY A1860     170.790 158.551 130.526  1.00 63.72     0.181 C 
HETATM    9  C31 SRY A1860     170.936 158.164 129.082  1.00 61.93     0.146 C 
HETATM   10  C21 SRY A1860     170.939 159.377 128.203  1.00 66.40     0.168 C 
HETATM   11  C11 SRY A1860     172.076 160.255 128.566  1.00 68.38     0.146 C 
HETATM   12  C61 SRY A1860     172.005 160.634 130.010  1.00 66.72     0.174 C 
HETATM   13  C51 SRY A1860     171.939 159.447 130.930  1.00 63.53     0.180 C 
BRANCH   9  14
HETATM   14  N31 SRY A1860     169.888 157.225 128.684  1.00 66.73    -0.355 N 
HETATM   15  CD1 SRY A1860     170.115 156.196 127.636  1.00 75.39     0.182 C 
HETATM   16  NE1 SRY A1860     171.401 156.143 126.994  1.00 81.29    -0.064 NA
HETATM   17  NF1 SRY A1860     169.168 155.318 127.257  1.00 77.61    -0.374 N 
ATOM     18 2HF1 SRY A1860     168.256 155.355 127.712  1.00  0.00     0.158 HD
ATOM     19 1HF1 SRY A1860     169.324 154.611 126.537  1.00  0.00     0.158 HD
ATOM     20  H31 SRY A1860     168.976 157.277 129.138  1.00  0.00     0.162 HD
ENDBRANCH   9  14
BRANCH  10  21
HETATM   21  O21 SRY A1860     171.083 159.028 126.870  1.00 71.96    -0.391 OA
ATOM     22  H21 SRY A1860     171.720 159.615 126.483  1.00  0.00     0.210 HD
ENDBRANCH  10  21
BRANCH  11  23
HETATM   23  N11 SRY A1860     171.983 161.513 127.896  1.00 76.44    -0.355 N 
HETATM   24  CA1 SRY A1860     172.545 161.712 126.573  1.00 85.70     0.182 C 
HETATM   25  NB1 SRY A1860     173.201 160.600 125.916  1.00 93.50    -0.064 NA
HETATM   26  NC1 SRY A1860     172.462 162.872 125.974  1.00 85.31    -0.374 N 
ATOM     27 2HC1 SRY A1860     172.000 163.655 126.437  1.00  0.00     0.158 HD
ATOM     28 1HC1 SRY A1860     172.857 163.012 125.044  1.00  0.00     0.158 HD
ATOM     29  H11 SRY A1860     171.510 162.290 128.359  1.00  0.00     0.162 HD
ENDBRANCH  11  23
BRANCH  12  30
HETATM   30  O61 SRY A1860     173.093 161.454 130.355  1.00 66.42    -0.391 OA
ATOM     31  H61 SRY A1860     173.865 161.203 129.862  1.00  0.00     0.210 HD
ENDBRANCH  12  30
BRANCH  13  32
HETATM   32  O51 SRY A1860     171.773 159.890 132.212  1.00 60.11    -0.390 OA
ATOM     33  H51 SRY A1860     172.329 159.401 132.808  1.00  0.00     0.210 HD
ENDBRANCH  13  32
ENDBRANCH   7   8
ENDBRANCH   1   7
BRANCH   2  34
HETATM   34  O13 SRY A1860     168.445 154.842 132.158  1.00 74.96    -0.345 OA
BRANCH  34  35
HETATM   35  C13 SRY A1860     168.307 155.019 130.770  1.00 82.06     0.294 C 
HETATM   36  C23 SRY A1860     168.036 153.735 130.007  1.00 88.41     0.271 C 
HETATM   37  C33 SRY A1860     166.698 153.189 130.491  1.00 94.07     0.185 C 
HETATM   38  C43 SRY A1860     165.707 154.268 130.200  1.00 94.04     0.180 C 
HETATM   39  C53 SRY A1860     166.098 155.580 130.824  1.00 90.34     0.179 C 
HETATM   40  O53 SRY A1860     167.346 156.002 130.509  1.00 82.16    -0.349 OA
BRANCH  36  41
HETATM   41  N23 SRY A1860     169.061 152.772 130.203  1.00 86.34    -0.068 N 
HETATM   42  CI3 SRY A1860     169.633 152.491 128.928  1.00 84.88     0.267 C 
ATOM     43 2H23 SRY A1860     169.753 153.063 130.894  1.00  0.00     0.277 HD
ATOM     44 1H23 SRY A1860     168.735 151.936 130.687  1.00  0.00     0.277 HD
ENDBRANCH  36  41
BRANCH  37  45
HETATM   45  O33 SRY A1860     166.386 151.992 129.864  1.00 97.34    -0.391 OA
ATOM     46  H33 SRY A1860     165.472 151.965 129.606  1.00  0.00     0.210 HD
ENDBRANCH  37  45
BRANCH  38  47
HETATM   47  O43 SRY A1860     164.453 153.926 130.663  1.00 95.04    -0.390 OA
ATOM     48  H43 SRY A1860     164.446 153.041 131.008  1.00  0.00     0.210 HD
ENDBRANCH  38  47
BRANCH  39  49
HETATM   49  C63 SRY A1860     165.169 156.618 130.283  1.00 97.11     0.198 C 
BRANCH  49  50
HETATM   50  O63 SRY A1860     164.826 156.311 128.923  1.00101.73    -0.398 OA
ATOM     51  H63 SRY A1860     165.228 155.490 128.664  1.00  0.00     0.209 HD
ENDBRANCH  49  50
ENDBRANCH  39  49
ENDBRANCH  34  35
ENDBRANCH   2  34
BRANCH   3  52
HETATM   52  O32 SRY A1860     168.732 155.624 134.737  1.00 83.76    -0.377 OA
ATOM     53  H32 SRY A1860     168.652 154.728 135.041  1.00  0.00     0.211 HD
ENDBRANCH   3  52
BRANCH   3  54
HETATM   54  CG2 SRY A1860     170.996 155.111 134.445  1.00 85.27     0.274 C 
HETATM   55  OG2 SRY A1860     172.088 155.638 134.394  1.00 91.11    -0.303 OA
ENDBRANCH   3  54
TORSDOF 16
ENDMDL
MODEL 3
REMARK VINA RESULT:    -7.724      2.667      4.822
REMARK INTER + INTRA:         -16.781
REMARK INTER:                 -13.220
REMARK INTRA:                  -3.561
REMARK UNBOUND:                -3.412
REMARK  16 active torsions:
REMARK  status: ('A' for Active; 'I' for Inactive)
REMARK    1  A    between atoms: C11_1  and  N11_2 
REMARK       I    between atoms: N11_2  and  CA1_4 
REMARK    2  A    between atoms: C21_9  and  O21_10 
REMARK    3  A    between atoms: C31_12  and  N31_13 
REMARK       I    between atoms: N31_13  and  CD1_15 
REMARK    4  A    between atoms: C41_20  and  O41_21 
REMARK    5  A    between atoms: O41_21  and  C12_28 
REMARK    6  A    between atoms: C51_22  and  O51_23 
REMARK    7  A    between atoms: C61_25  and  O61_26 
REMARK    8  A    between atoms: C22_29  and  O13_38 
REMARK    9  A    between atoms: C32_30  and  O32_31 
REMARK   10  A    between atoms: C32_30  and  CG2_33 
REMARK   11  A    between atoms: O13_38  and  C13_39 
REMARK   12  A    between atoms: C23_40  and  N23_41 
REMARK   13  A    between atoms: C33_45  and  O33_46 
REMARK   14  A    between atoms: C43_48  and  O43_49 
REMARK   15  A    between atoms: C53_51  and  C63_53 
REMARK   16  A    between atoms: C63_53  and  O63_54 
ROOT
HETATM    1  C12 SRY A1860     166.125 156.498 132.315  1.00 71.66     0.293 C 
HETATM    2  C22 SRY A1860     167.006 157.650 132.799  1.00 72.81     0.223 C 
HETATM    3  C32 SRY A1860     166.082 158.831 132.786  1.00 79.11     0.166 C 
HETATM    4  C42 SRY A1860     164.875 158.270 132.126  1.00 79.85     0.165 C 
HETATM    5  CH2 SRY A1860     163.605 159.003 132.482  1.00 83.53     0.043 C 
HETATM    6  O42 SRY A1860     164.790 156.909 132.494  1.00 76.91    -0.350 OA
ENDROOT
BRANCH   1   7
HETATM    7  O41 SRY A1860     166.368 156.183 130.961  1.00 69.52    -0.348 OA
BRANCH   7   8
HETATM    8  C41 SRY A1860     166.725 154.826 130.721  1.00 63.72     0.181 C 
HETATM    9  C31 SRY A1860     167.966 154.960 129.887  1.00 61.93     0.146 C 
HETATM   10  C21 SRY A1860     168.527 153.613 129.548  1.00 66.40     0.168 C 
HETATM   11  C11 SRY A1860     167.530 152.835 128.775  1.00 68.38     0.146 C 
HETATM   12  C61 SRY A1860     166.254 152.712 129.544  1.00 66.72     0.174 C 
HETATM   13  C51 SRY A1860     165.683 154.039 129.959  1.00 63.53     0.180 C 
BRANCH   9  14
HETATM   14  N31 SRY A1860     168.962 155.793 130.561  1.00 66.73    -0.355 N 
HETATM   15  CD1 SRY A1860     169.749 156.819 129.829  1.00 75.39     0.182 C 
HETATM   16  NE1 SRY A1860     169.527 156.976 128.417  1.00 81.29    -0.064 NA
HETATM   17  NF1 SRY A1860     170.666 157.601 130.429  1.00 77.61    -0.374 N 
ATOM     18 2HF1 SRY A1860     170.825 157.489 131.430  1.00  0.00     0.158 HD
ATOM     19 1HF1 SRY A1860     171.207 158.305 129.925  1.00  0.00     0.158 HD
ATOM     20  H31 SRY A1860     169.120 155.666 131.561  1.00  0.00     0.162 HD
ENDBRANCH   9  14
BRANCH  10  21
HETATM   21  O21 SRY A1860     169.669 153.728 128.771  1.00 71.96    -0.391 OA
ATOM     22  H21 SRY A1860     169.823 152.888 128.355  1.00  0.00     0.210 HD
ENDBRANCH  10  21
BRANCH  11  23
HETATM   23  N11 SRY A1860     167.949 151.478 128.623  1.00 76.44    -0.355 N 
HETATM   24  CA1 SRY A1860     167.830 150.786 127.352  1.00 85.70     0.182 C 
HETATM   25  NB1 SRY A1860     167.286 151.499 126.215  1.00 93.50    -0.064 NA
HETATM   26  NC1 SRY A1860     168.207 149.539 127.228  1.00 85.31    -0.374 N 
ATOM     27 2HC1 SRY A1860     168.589 149.037 128.030  1.00  0.00     0.158 HD
ATOM     28 1HC1 SRY A1860     168.123 149.053 126.335  1.00  0.00     0.158 HD
ATOM     29  H11 SRY A1860     168.341 150.984 129.425  1.00  0.00     0.162 HD
ENDBRANCH  11  23
BRANCH  12  30
HETATM   30  O61 SRY A1860     165.305 151.988 128.802  1.00 66.42    -0.391 OA
ATOM     31  H61 SRY A1860     165.709 151.606 128.032  1.00  0.00     0.210 HD
ENDBRANCH  12  30
BRANCH  13  32
HETATM   32  O51 SRY A1860     164.582 153.822 130.738  1.00 60.11    -0.390 OA
ATOM     33  H51 SRY A1860     163.825 154.269 130.377  1.00  0.00     0.210 HD
ENDBRANCH  13  32
ENDBRANCH   7   8
ENDBRANCH   1   7
BRANCH   2  34
HETATM   34  O13 SRY A1860     167.619 157.361 134.032  1.00 74.96    -0.345 OA
BRANCH  34  35
HETATM   35  C13 SRY A1860     168.950 157.769 133.832  1.00 82.06     0.294 C 
HETATM   36  C23 SRY A1860     169.554 158.506 135.015  1.00 88.41     0.271 C 
HETATM   37  C33 SRY A1860     169.589 157.535 136.188  1.00 94.07     0.185 C 
HETATM   38  C43 SRY A1860     170.421 156.387 135.722  1.00 94.04     0.180 C 
HETATM   39  C53 SRY A1860     169.897 155.788 134.445  1.00 90.34     0.179 C 
HETATM   40  O53 SRY A1860     169.729 156.676 133.436  1.00 82.16    -0.349 OA
BRANCH  36  41
HETATM   41  N23 SRY A1860     168.810 159.666 135.356  1.00 86.34    -0.068 N 
HETATM   42  CI3 SRY A1860     169.274 160.730 134.527  1.00 84.88     0.267 C 
ATOM     43 2H23 SRY A1860     167.801 159.525 135.294  1.00  0.00     0.277 HD
ATOM     44 1H23 SRY A1860     168.852 159.889 136.350  1.00  0.00     0.277 HD
ENDBRANCH  36  41
BRANCH  37  45
HETATM   45  O33 SRY A1860     170.100 158.139 137.327  1.00 97.34    -0.391 OA
ATOM     46  H33 SRY A1860     169.826 157.682 138.114  1.00  0.00     0.210 HD
ENDBRANCH  37  45
BRANCH  38  47
HETATM   47  O43 SRY A1860     170.471 155.392 136.677  1.00 95.04    -0.390 OA
ATOM     48  H43 SRY A1860     171.319 155.371 137.105  1.00  0.00     0.210 HD
ENDBRANCH  38  47
BRANCH  39  49
HETATM   49  C63 SRY A1860     170.922 154.814 133.962  1.00 97.11     0.198 C 
BRANCH  49  50
HETATM   50  O63 SRY A1860     172.230 155.225 134.389  1.00101.73    -0.398 OA
ATOM     51  H63 SRY A1860     172.825 154.485 134.370  1.00  0.00     0.209 HD
ENDBRANCH  49  50
ENDBRANCH  39  49
ENDBRANCH  34  35
ENDBRANCH   2  34
BRANCH   3  52
HETATM   52  O32 SRY A1860     165.706 159.279 134.053  1.00 83.76    -0.377 OA
ATOM     53  H32 SRY A1860     166.431 159.406 134.653  1.00  0.00     0.211 HD
ENDBRANCH   3  52
BRANCH   3  54
HETATM   54  CG2 SRY A1860     166.628 159.960 132.012  1.00 85.27     0.274 C 
HETATM   55  OG2 SRY A1860     167.561 159.744 131.268  1.00 91.11    -0.303 OA
ENDBRANCH   3  54
TORSDOF 16
ENDMDL
MODEL 4
REMARK VINA RESULT:    -7.561      3.893      7.019
REMARK INTER + INTRA:         -16.497
REMARK INTER:                 -12.872
REMARK INTRA:                  -3.625
REMARK UNBOUND:                -3.412
REMARK  16 active torsions:
REMARK  status: ('A' for Active; 'I' for Inactive)
REMARK    1  A    between atoms: C11_1  and  N11_2 
REMARK       I    between atoms: N11_2  and  CA1_4 
REMARK    2  A    between atoms: C21_9  and  O21_10 
REMARK    3  A    between atoms: C31_12  and  N31_13 
REMARK       I    between atoms: N31_13  and  CD1_15 
REMARK    4  A    between atoms: C41_20  and  O41_21 
REMARK    5  A    between atoms: O41_21  and  C12_28 
REMARK    6  A    between atoms: C51_22  and  O51_23 
REMARK    7  A    between atoms: C61_25  and  O61_26 
REMARK    8  A    between atoms: C22_29  and  O13_38 
REMARK    9  A    between atoms: C32_30  and  O32_31 
REMARK   10  A    between atoms: C32_30  and  CG2_33 
REMARK   11  A    between atoms: O13_38  and  C13_39 
REMARK   12  A    between atoms: C23_40  and  N23_41 
REMARK   13  A    between atoms: C33_45  and  O33_46 
REMARK   14  A    between atoms: C43_48  and  O43_49 
REMARK   15  A    between atoms: C53_51  and  C63_53 
REMARK   16  A    between atoms: C63_53  and  O63_54 
ROOT
HETATM    1  C12 SRY A1860     168.346 158.464 128.802  1.00 71.66     0.293 C 
HETATM    2  C22 SRY A1860     169.130 159.580 128.111  1.00 72.81     0.223 C 
HETATM    3  C32 SRY A1860     169.375 159.039 126.733  1.00 79.11     0.166 C 
HETATM    4  C42 SRY A1860     168.891 157.641 126.861  1.00 79.85     0.165 C 
HETATM    5  CH2 SRY A1860     168.466 157.033 125.547  1.00 83.53     0.043 C 
HETATM    6  O42 SRY A1860     167.818 157.650 127.781  1.00 76.91    -0.350 OA
ENDROOT
BRANCH   1   7
HETATM    7  O41 SRY A1860     169.164 157.704 129.666  1.00 69.52    -0.348 OA
BRANCH   7   8
HETATM    8  C41 SRY A1860     168.659 157.563 130.989  1.00 63.72     0.181 C 
HETATM    9  C31 SRY A1860     169.793 158.081 131.826  1.00 61.93     0.146 C 
HETATM   10  C21 SRY A1860     169.441 158.044 133.282  1.00 66.40     0.168 C 
HETATM   11  C11 SRY A1860     169.161 156.649 133.693  1.00 68.38     0.146 C 
HETATM   12  C61 SRY A1860     168.067 156.067 132.858  1.00 66.72     0.174 C 
HETATM   13  C51 SRY A1860     168.349 156.136 131.383  1.00 63.53     0.180 C 
BRANCH   9  14
HETATM   14  N31 SRY A1860     170.177 159.430 131.408  1.00 66.73    -0.355 N 
HETATM   15  CD1 SRY A1860     171.599 159.855 131.345  1.00 75.39     0.182 C 
HETATM   16  NE1 SRY A1860     172.615 158.910 131.722  1.00 81.29    -0.064 NA
HETATM   17  NF1 SRY A1860     171.976 161.088 130.959  1.00 77.61    -0.374 N 
ATOM     18 2HF1 SRY A1860     171.255 161.759 130.692  1.00  0.00     0.158 HD
ATOM     19 1HF1 SRY A1860     172.953 161.380 130.915  1.00  0.00     0.158 HD
ATOM     20  H31 SRY A1860     169.448 160.097 131.153  1.00  0.00     0.162 HD
ENDBRANCH   9  14
BRANCH  10  21
HETATM   21  O21 SRY A1860     170.486 158.514 134.061  1.00 71.96    -0.391 OA
ATOM     22  H21 SRY A1860     171.198 157.889 133.999  1.00  0.00     0.210 HD
ENDBRANCH  10  21
BRANCH  11  23
HETATM   23  N11 SRY A1860     168.617 156.607 135.014  1.00 76.44    -0.355 N 
HETATM   24  CA1 SRY A1860     169.422 156.207 136.154  1.00 85.70     0.182 C 
HETATM   25  NB1 SRY A1860     170.812 155.858 135.941  1.00 93.50    -0.064 NA
HETATM   26  NC1 SRY A1860     168.909 156.162 137.356  1.00 85.31    -0.374 N 
ATOM     27 2HC1 SRY A1860     167.931 156.407 137.505  1.00  0.00     0.158 HD
ATOM     28 1HC1 SRY A1860     169.476 155.880 138.157  1.00  0.00     0.158 HD
ATOM     29  H11 SRY A1860     167.640 156.864 135.159  1.00  0.00     0.162 HD
ENDBRANCH  11  23
BRANCH  12  30
HETATM   30  O61 SRY A1860     167.814 154.738 133.240  1.00 66.42    -0.391 OA
ATOM     31  H61 SRY A1860     166.954 154.467 132.941  1.00  0.00     0.210 HD
ENDBRANCH  12  30
BRANCH  13  32
HETATM   32  O51 SRY A1860     167.256 155.678 130.702  1.00 60.11    -0.390 OA
ATOM     33  H51 SRY A1860     166.628 156.379 130.570  1.00  0.00     0.210 HD
ENDBRANCH  13  32
ENDBRANCH   7   8
ENDBRANCH   1   7
BRANCH   2  34
HETATM   34  O13 SRY A1860     168.457 160.814 128.178  1.00 74.96    -0.345 OA
BRANCH  34  35
HETATM   35  C13 SRY A1860     169.486 161.725 128.475  1.00 82.06     0.294 C 
HETATM   36  C23 SRY A1860     169.544 162.919 127.538  1.00 88.41     0.271 C 
HETATM   37  C33 SRY A1860     168.242 163.693 127.703  1.00 94.07     0.185 C 
HETATM   38  C43 SRY A1860     168.196 164.078 129.145  1.00 94.04     0.180 C 
HETATM   39  C53 SRY A1860     168.322 162.886 130.055  1.00 90.34     0.179 C 
HETATM   40  O53 SRY A1860     169.408 162.111 129.818  1.00 82.16    -0.349 OA
BRANCH  36  41
HETATM   41  N23 SRY A1860     169.715 162.525 126.184  1.00 86.34    -0.068 N 
HETATM   42  CI3 SRY A1860     171.081 162.748 125.844  1.00 84.88     0.267 C 
ATOM     43 2H23 SRY A1860     169.412 161.566 126.007  1.00  0.00     0.277 HD
ATOM     44 1H23 SRY A1860     169.066 162.988 125.549  1.00  0.00     0.277 HD
ENDBRANCH  36  41
BRANCH  37  45
HETATM   45  O33 SRY A1860     168.196 164.789 126.855  1.00 97.34    -0.391 OA
ATOM     46  H33 SRY A1860     167.394 165.284 126.973  1.00  0.00     0.210 HD
ENDBRANCH  37  45
BRANCH  38  47
HETATM   47  O43 SRY A1860     167.017 164.729 129.447  1.00 95.04    -0.390 OA
ATOM     48  H43 SRY A1860     166.798 165.366 128.777  1.00  0.00     0.210 HD
ENDBRANCH  38  47
BRANCH  39  49
HETATM   49  C63 SRY A1860     168.491 163.408 131.444  1.00 97.11     0.198 C 
BRANCH  49  50
HETATM   50  O63 SRY A1860     169.359 164.552 131.437  1.00101.73    -0.398 OA
ATOM     51  H63 SRY A1860     170.256 164.281 131.593  1.00  0.00     0.209 HD
ENDBRANCH  49  50
ENDBRANCH  39  49
ENDBRANCH  34  35
ENDBRANCH   2  34
BRANCH   3  52
HETATM   52  O32 SRY A1860     168.627 159.660 125.732  1.00 83.76    -0.377 OA
ATOM     53  H32 SRY A1860     167.686 159.595 125.851  1.00  0.00     0.211 HD
ENDBRANCH   3  52
BRANCH   3  54
HETATM   54  CG2 SRY A1860     170.801 159.071 126.367  1.00 85.27     0.274 C 
HETATM   55  OG2 SRY A1860     171.620 159.131 127.260  1.00 91.11    -0.303 OA
ENDBRANCH   3  54
TORSDOF 16
ENDMDL
MODEL 5
REMARK VINA RESULT:    -7.497      2.733      7.177
REMARK INTER + INTRA:         -16.387
REMARK INTER:                 -12.990
REMARK INTRA:                  -3.397
REMARK UNBOUND:                -3.412
REMARK  16 active torsions:
REMARK  status: ('A' for Active; 'I' for Inactive)
REMARK    1  A    between atoms: C11_1  and  N11_2 
REMARK       I    between atoms: N11_2  and  CA1_4 
REMARK    2  A    between atoms: C21_9  and  O21_10 
REMARK    3  A    between atoms: C31_12  and  N31_13 
REMARK       I    between atoms: N31_13  and  CD1_15 
REMARK    4  A    between atoms: C41_20  and  O41_21 
REMARK    5  A    between atoms: O41_21  and  C12_28 
REMARK    6  A    between atoms: C51_22  and  O51_23 
REMARK    7  A    between atoms: C61_25  and  O61_26 
REMARK    8  A    between atoms: C22_29  and  O13_38 
REMARK    9  A    between atoms: C32_30  and  O32_31 
REMARK   10  A    between atoms: C32_30  and  CG2_33 
REMARK   11  A    between atoms: O13_38  and  C13_39 
REMARK   12  A    between atoms: C23_40  and  N23_41 
REMARK   13  A    between atoms: C33_45  and  O33_46 
REMARK   14  A    between atoms: C43_48  and  O43_49 
REMARK   15  A    between atoms: C53_51  and  C63_53 
REMARK   16  A    between atoms: C63_53  and  O63_54 
ROOT
HETATM    1  C12 SRY A1860     170.191 157.126 130.469  1.00 71.66     0.293 C 
HETATM    2  C22 SRY A1860     169.680 157.049 129.030  1.00 72.81     0.223 C 
HETATM    3  C32 SRY A1860     170.290 158.253 128.374  1.00 79.11     0.166 C 
HETATM    4  C42 SRY A1860     170.896 158.960 129.531  1.00 79.85     0.165 C 
HETATM    5  CH2 SRY A1860     172.045 159.859 129.147  1.00 83.53     0.043 C 
HETATM    6  O42 SRY A1860     171.315 157.975 130.453  1.00 76.91    -0.350 OA
ENDROOT
BRANCH   1   7
HETATM    7  O41 SRY A1860     169.208 157.624 131.350  1.00 69.52    -0.348 OA
BRANCH   7   8
HETATM    8  C41 SRY A1860     169.242 157.060 132.657  1.00 63.72     0.181 C 
HETATM    9  C31 SRY A1860     167.784 156.882 132.971  1.00 61.93     0.146 C 
HETATM   10  C21 SRY A1860     167.602 156.259 134.321  1.00 66.40     0.168 C 
HETATM   11  C11 SRY A1860     168.197 157.133 135.359  1.00 68.38     0.146 C 
HETATM   12  C61 SRY A1860     169.642 157.382 135.068  1.00 66.72     0.174 C 
HETATM   13  C51 SRY A1860     169.879 157.952 133.698  1.00 63.53     0.180 C 
BRANCH   9  14
HETATM   14  N31 SRY A1860     167.118 156.096 131.932  1.00 66.73    -0.355 N 
HETATM   15  CD1 SRY A1860     165.761 156.444 131.436  1.00 75.39     0.182 C 
HETATM   16  NE1 SRY A1860     165.090 157.577 132.013  1.00 81.29    -0.064 NA
HETATM   17  NF1 SRY A1860     165.131 155.739 130.478  1.00 77.61    -0.374 N 
ATOM     18 2HF1 SRY A1860     165.607 154.935 130.069  1.00  0.00     0.158 HD
ATOM     19 1HF1 SRY A1860     164.199 155.979 130.137  1.00  0.00     0.158 HD
ATOM     20  H31 SRY A1860     167.598 155.287 131.537  1.00  0.00     0.162 HD
ENDBRANCH   9  14
BRANCH  10  21
HETATM   21  O21 SRY A1860     166.259 156.099 134.621  1.00 71.96    -0.391 OA
ATOM     22  H21 SRY A1860     165.842 156.949 134.549  1.00  0.00     0.210 HD
ENDBRANCH  10  21
BRANCH  11  23
HETATM   23  N11 SRY A1860     168.231 156.471 136.625  1.00 76.44    -0.355 N 
HETATM   24  CA1 SRY A1860     167.548 157.016 137.784  1.00 85.70     0.182 C 
HETATM   25  NB1 SRY A1860     166.805 158.251 137.643  1.00 93.50    -0.064 NA
HETATM   26  NC1 SRY A1860     167.595 156.405 138.940  1.00 85.31    -0.374 N 
ATOM     27 2HC1 SRY A1860     168.119 155.536 139.040  1.00  0.00     0.158 HD
ATOM     28 1HC1 SRY A1860     167.115 156.788 139.755  1.00  0.00     0.158 HD
ATOM     29  H11 SRY A1860     168.746 155.595 136.716  1.00  0.00     0.162 HD
ENDBRANCH  11  23
BRANCH  12  30
HETATM   30  O61 SRY A1860     170.200 158.224 136.046  1.00 66.42    -0.391 OA
ATOM     31  H61 SRY A1860     171.130 158.055 136.136  1.00  0.00     0.210 HD
ENDBRANCH  12  30
BRANCH  13  32
HETATM   32  O51 SRY A1860     171.226 158.048 133.486  1.00 60.11    -0.390 OA
ATOM     33  H51 SRY A1860     171.693 157.418 134.024  1.00  0.00     0.210 HD
ENDBRANCH  13  32
ENDBRANCH   7   8
ENDBRANCH   1   7
BRANCH   2  34
HETATM   34  O13 SRY A1860     169.971 155.809 128.434  1.00 74.96    -0.345 OA
BRANCH  34  35
HETATM   35  C13 SRY A1860     168.725 155.394 127.929  1.00 82.06     0.294 C 
HETATM   36  C23 SRY A1860     168.822 154.449 126.745  1.00 88.41     0.271 C 
HETATM   37  C33 SRY A1860     169.517 153.182 127.227  1.00 94.07     0.185 C 
HETATM   38  C43 SRY A1860     168.657 152.659 128.329  1.00 94.04     0.180 C 
HETATM   39  C53 SRY A1860     168.431 153.684 129.408  1.00 90.34     0.179 C 
HETATM   40  O53 SRY A1860     167.944 154.867 128.964  1.00 82.16    -0.349 OA
BRANCH  36  41
HETATM   41  N23 SRY A1860     169.539 155.024 125.662  1.00 86.34    -0.068 N 
HETATM   42  CI3 SRY A1860     168.798 156.156 125.213  1.00 84.88     0.267 C 
ATOM     43 2H23 SRY A1860     170.505 155.249 125.899  1.00  0.00     0.277 HD
ATOM     44 1H23 SRY A1860     169.736 154.357 124.917  1.00  0.00     0.277 HD
ENDBRANCH  36  41
BRANCH  37  45
HETATM   45  O33 SRY A1860     169.676 152.271 126.194  1.00 97.34    -0.391 OA
ATOM     46  H33 SRY A1860     170.389 151.667 126.372  1.00  0.00     0.210 HD
ENDBRANCH  37  45
BRANCH  38  47
HETATM   47  O43 SRY A1860     169.220 151.540 128.909  1.00 95.04    -0.390 OA
ATOM     48  H43 SRY A1860     168.627 150.800 128.868  1.00  0.00     0.210 HD
ENDBRANCH  38  47
BRANCH  39  49
HETATM   49  C63 SRY A1860     167.388 153.135 130.326  1.00 97.11     0.198 C 
BRANCH  49  50
HETATM   50  O63 SRY A1860     167.864 153.158 131.680  1.00101.73    -0.398 OA
ATOM     51  H63 SRY A1860     168.008 154.054 131.959  1.00  0.00     0.209 HD
ENDBRANCH  49  50
ENDBRANCH  39  49
ENDBRANCH  34  35
ENDBRANCH   2  34
BRANCH   3  52
HETATM   52  O32 SRY A1860     171.313 157.957 127.472  1.00 83.76    -0.377 OA
ATOM     53  H32 SRY A1860     171.129 158.213 126.575  1.00  0.00     0.211 HD
ENDBRANCH   3  52
BRANCH   3  54
HETATM   54  CG2 SRY A1860     169.283 159.097 127.709  1.00 85.27     0.274 C 
HETATM   55  OG2 SRY A1860     169.512 159.480 126.581  1.00 91.11    -0.303 OA
ENDBRANCH   3  54
TORSDOF 16
ENDMDL
MODEL 6
REMARK VINA RESULT:    -7.496      2.466      5.367
REMARK INTER + INTRA:         -16.386
REMARK INTER:                 -13.011
REMARK INTRA:                  -3.375
REMARK UNBOUND:                -3.412
REMARK  16 active torsions:
REMARK  status: ('A' for Active; 'I' for Inactive)
REMARK    1  A    between atoms: C11_1  and  N11_2 
REMARK       I    between atoms: N11_2  and  CA1_4 
REMARK    2  A    between atoms: C21_9  and  O21_10 
REMARK    3  A    between atoms: C31_12  and  N31_13 
REMARK       I    between atoms: N31_13  and  CD1_15 
REMARK    4  A    between atoms: C41_20  and  O41_21 
REMARK    5  A    between atoms: O41_21  and  C12_28 
REMARK    6  A    between atoms: C51_22  and  O51_23 
REMARK    7  A    between atoms: C61_25  and  O61_26 
REMARK    8  A    between atoms: C22_29  and  O13_38 
REMARK    9  A    between atoms: C32_30  and  O32_31 
REMARK   10  A    between atoms: C32_30  and  CG2_33 
REMARK   11  A    between atoms: O13_38  and  C13_39 
REMARK   12  A    between atoms: C23_40  and  N23_41 
REMARK   13  A    between atoms: C33_45  and  O33_46 
REMARK   14  A    between atoms: C43_48  and  O43_49 
REMARK   15  A    between atoms: C53_51  and  C63_53 
REMARK   16  A    between atoms: C63_53  and  O63_54 
ROOT
HETATM    1  C12 SRY A1860     167.925 157.174 128.324  1.00 71.66     0.293 C 
HETATM    2  C22 SRY A1860     169.180 157.661 129.047  1.00 72.81     0.223 C 
HETATM    3  C32 SRY A1860     169.587 158.878 128.269  1.00 79.11     0.166 C 
HETATM    4  C42 SRY A1860     168.659 158.826 127.110  1.00 79.85     0.165 C 
HETATM    5  CH2 SRY A1860     168.419 160.174 126.477  1.00 83.53     0.043 C 
HETATM    6  O42 SRY A1860     167.447 158.262 127.567  1.00 76.91    -0.350 OA
ENDROOT
BRANCH   1   7
HETATM    7  O41 SRY A1860     168.195 156.071 127.486  1.00 69.52    -0.348 OA
BRANCH   7   8
HETATM    8  C41 SRY A1860     167.968 154.800 128.085  1.00 63.72     0.181 C 
HETATM    9  C31 SRY A1860     169.041 153.953 127.463  1.00 61.93     0.146 C 
HETATM   10  C21 SRY A1860     168.990 152.554 127.997  1.00 66.40     0.168 C 
HETATM   11  C11 SRY A1860     167.677 151.945 127.682  1.00 68.38     0.146 C 
HETATM   12  C61 SRY A1860     166.567 152.777 128.240  1.00 66.72     0.174 C 
HETATM   13  C51 SRY A1860     166.611 154.207 127.778  1.00 63.53     0.180 C 
BRANCH   9  14
HETATM   14  N31 SRY A1860     170.361 154.549 127.666  1.00 66.73    -0.355 N 
HETATM   15  CD1 SRY A1860     171.272 154.839 126.529  1.00 75.39     0.182 C 
HETATM   16  NE1 SRY A1860     170.837 154.506 125.200  1.00 81.29    -0.064 NA
HETATM   17  NF1 SRY A1860     172.489 155.392 126.691  1.00 77.61    -0.374 N 
ATOM     18 2HF1 SRY A1860     172.797 155.629 127.634  1.00  0.00     0.158 HD
ATOM     19 1HF1 SRY A1860     173.114 155.591 125.909  1.00  0.00     0.158 HD
ATOM     20  H31 SRY A1860     170.664 154.772 128.615  1.00  0.00     0.162 HD
ENDBRANCH   9  14
BRANCH  10  21
HETATM   21  O21 SRY A1860     169.972 151.763 127.423  1.00 71.96    -0.391 OA
ATOM     22  H21 SRY A1860     169.970 150.926 127.871  1.00  0.00     0.210 HD
ENDBRANCH  10  21
BRANCH  11  23
HETATM   23  N11 SRY A1860     167.517 150.697 128.360  1.00 76.44    -0.355 N 
HETATM   24  CA1 SRY A1860     167.735 149.433 127.681  1.00 85.70     0.182 C 
HETATM   25  NB1 SRY A1860     168.137 149.444 126.290  1.00 93.50    -0.064 NA
HETATM   26  NC1 SRY A1860     167.575 148.297 128.310  1.00 85.31    -0.374 N 
ATOM     27 2HC1 SRY A1860     167.292 148.288 129.289  1.00  0.00     0.158 HD
ATOM     28 1HC1 SRY A1860     167.728 147.408 127.833  1.00  0.00     0.158 HD
ATOM     29  H11 SRY A1860     167.245 150.695 129.343  1.00  0.00     0.162 HD
ENDBRANCH  11  23
BRANCH  12  30
HETATM   30  O61 SRY A1860     165.322 152.206 127.925  1.00 66.42    -0.391 OA
ATOM     31  H61 SRY A1860     165.011 152.531 127.089  1.00  0.00     0.210 HD
ENDBRANCH  12  30
BRANCH  13  32
HETATM   32  O51 SRY A1860     165.627 154.908 128.416  1.00 60.11    -0.390 OA
ATOM     33  H51 SRY A1860     164.880 155.031 127.841  1.00  0.00     0.210 HD
ENDBRANCH  13  32
ENDBRANCH   7   8
ENDBRANCH   1   7
BRANCH   2  34
HETATM   34  O13 SRY A1860     168.952 157.857 130.422  1.00 74.96    -0.345 OA
BRANCH  34  35
HETATM   35  C13 SRY A1860     170.051 157.218 131.024  1.00 82.06     0.294 C 
HETATM   36  C23 SRY A1860     170.238 157.562 132.491  1.00 88.41     0.271 C 
HETATM   37  C33 SRY A1860     169.007 157.064 133.238  1.00 94.07     0.185 C 
HETATM   38  C43 SRY A1860     168.959 155.595 132.979  1.00 94.04     0.180 C 
HETATM   39  C53 SRY A1860     168.956 155.278 131.508  1.00 90.34     0.179 C 
HETATM   40  O53 SRY A1860     169.973 155.837 130.811  1.00 82.16    -0.349 OA
BRANCH  36  41
HETATM   41  N23 SRY A1860     170.407 158.958 132.693  1.00 86.34    -0.068 N 
HETATM   42  CI3 SRY A1860     171.561 159.358 131.958  1.00 84.88     0.267 C 
ATOM     43 2H23 SRY A1860     169.576 159.498 132.454  1.00  0.00     0.277 HD
ATOM     44 1H23 SRY A1860     170.454 159.215 133.678  1.00  0.00     0.277 HD
ENDBRANCH  36  41
BRANCH  37  45
HETATM   45  O33 SRY A1860     169.080 157.368 134.589  1.00 97.34    -0.391 OA
ATOM     46  H33 SRY A1860     168.316 157.856 134.875  1.00  0.00     0.210 HD
ENDBRANCH  37  45
BRANCH  38  47
HETATM   47  O43 SRY A1860     167.836 155.028 133.546  1.00 95.04    -0.390 OA
ATOM     48  H43 SRY A1860     167.281 154.634 132.883  1.00  0.00     0.210 HD
ENDBRANCH  38  47
BRANCH  39  49
HETATM   49  C63 SRY A1860     169.136 153.801 131.376  1.00 97.11     0.198 C 
BRANCH  49  50
HETATM   50  O63 SRY A1860     167.860 153.143 131.425  1.00101.73    -0.398 OA
ATOM     51  H63 SRY A1860     167.166 153.786 131.499  1.00  0.00     0.209 HD
ENDBRANCH  49  50
ENDBRANCH  39  49
ENDBRANCH  34  35
ENDBRANCH   2  34
BRANCH   3  52
HETATM   52  O32 SRY A1860     169.370 160.084 128.936  1.00 83.76    -0.377 OA
ATOM     53  H32 SRY A1860     169.137 159.987 129.852  1.00  0.00     0.211 HD
ENDBRANCH   3  52
BRANCH   3  54
HETATM   54  CG2 SRY A1860     170.989 158.813 127.823  1.00 85.27     0.274 C 
HETATM   55  OG2 SRY A1860     171.239 158.196 126.809  1.00 91.11    -0.303 OA
ENDBRANCH   3  54
TORSDOF 16
ENDMDL
MODEL 7
REMARK VINA RESULT:    -7.049      4.548      8.422
REMARK INTER + INTRA:         -15.612
REMARK INTER:                 -11.821
REMARK INTRA:                  -3.791
REMARK UNBOUND:                -3.412
REMARK  16 active torsions:
REMARK  status: ('A' for Active; 'I' for Inactive)
REMARK    1  A    between atoms: C11_1  and  N11_2 
REMARK       I    between atoms: N11_2  and  CA1_4 
REMARK    2  A    between atoms: C21_9  and  O21_10 
REMARK    3  A    between atoms: C31_12  and  N31_13 
REMARK       I    between atoms: N31_13  and  CD1_15 
REMARK    4  A    between atoms: C41_20  and  O41_21 
REMARK    5  A    between atoms: O41_21  and  C12_28 
REMARK    6  A    between atoms: C51_22  and  O51_23 
REMARK    7  A    between atoms: C61_25  and  O61_26 
REMARK    8  A    between atoms: C22_29  and  O13_38 
REMARK    9  A    between atoms: C32_30  and  O32_31 
REMARK   10  A    between atoms: C32_30  and  CG2_33 
REMARK   11  A    between atoms: O13_38  and  C13_39 
REMARK   12  A    between atoms: C23_40  and  N23_41 
REMARK   13  A    between atoms: C33_45  and  O33_46 
REMARK   14  A    between atoms: C43_48  and  O43_49 
REMARK   15  A    between atoms: C53_51  and  C63_53 
REMARK   16  A    between atoms: C63_53  and  O63_54 
ROOT
HETATM    1  C12 SRY A1860     168.466 159.759 130.348  1.00 71.66     0.293 C 
HETATM    2  C22 SRY A1860     169.802 160.424 130.018  1.00 72.81     0.223 C 
HETATM    3  C32 SRY A1860     170.765 159.274 129.960  1.00 79.11     0.166 C 
HETATM    4  C42 SRY A1860     169.927 158.148 130.445  1.00 79.85     0.165 C 
HETATM    5  CH2 SRY A1860     170.402 156.800 129.962  1.00 83.53     0.043 C 
HETATM    6  O42 SRY A1860     168.603 158.396 130.021  1.00 76.91    -0.350 OA
ENDROOT
BRANCH   1   7
HETATM    7  O41 SRY A1860     168.126 159.908 131.709  1.00 69.52    -0.348 OA
BRANCH   7   8
HETATM    8  C41 SRY A1860     168.614 161.100 132.316  1.00 63.72     0.181 C 
HETATM    9  C31 SRY A1860     169.021 160.625 133.682  1.00 61.93     0.146 C 
HETATM   10  C21 SRY A1860     169.602 161.748 134.485  1.00 66.40     0.168 C 
HETATM   11  C11 SRY A1860     168.592 162.820 134.649  1.00 68.38     0.146 C 
HETATM   12  C61 SRY A1860     168.116 163.298 133.315  1.00 66.72     0.174 C 
HETATM   13  C51 SRY A1860     167.579 162.195 132.448  1.00 63.53     0.180 C 
BRANCH   9  14
HETATM   14  N31 SRY A1860     169.956 159.503 133.587  1.00 66.73    -0.355 N 
HETATM   15  CD1 SRY A1860     169.686 158.201 134.250  1.00 75.39     0.182 C 
HETATM   16  NE1 SRY A1860     168.476 158.058 135.013  1.00 81.29    -0.064 NA
HETATM   17  NF1 SRY A1860     170.528 157.154 134.172  1.00 77.61    -0.374 N 
ATOM     18 2HF1 SRY A1860     171.387 157.256 133.631  1.00  0.00     0.158 HD
ATOM     19 1HF1 SRY A1860     170.343 156.259 134.628  1.00  0.00     0.158 HD
ATOM     20  H31 SRY A1860     170.817 159.619 133.052  1.00  0.00     0.162 HD
ENDBRANCH   9  14
BRANCH  10  21
HETATM   21  O21 SRY A1860     169.973 161.319 135.749  1.00 71.96    -0.391 OA
ATOM     22  H21 SRY A1860     170.921 161.322 135.790  1.00  0.00     0.210 HD
ENDBRANCH  10  21
BRANCH  11  23
HETATM   23  N11 SRY A1860     169.178 163.989 135.222  1.00 76.44    -0.355 N 
HETATM   24  CA1 SRY A1860     169.010 164.312 136.627  1.00 85.70     0.182 C 
HETATM   25  NB1 SRY A1860     168.240 163.415 137.464  1.00 93.50    -0.064 NA
HETATM   26  NC1 SRY A1860     169.543 165.392 137.138  1.00 85.31    -0.374 N 
ATOM     27 2HC1 SRY A1860     170.085 166.024 136.548  1.00  0.00     0.158 HD
ATOM     28 1HC1 SRY A1860     169.425 165.618 138.126  1.00  0.00     0.158 HD
ATOM     29  H11 SRY A1860     169.729 164.612 134.630  1.00  0.00     0.162 HD
ENDBRANCH  11  23
BRANCH  12  30
HETATM   30  O61 SRY A1860     167.147 164.304 133.474  1.00 66.42    -0.391 OA
ATOM     31  H61 SRY A1860     166.990 164.745 132.647  1.00  0.00     0.210 HD
ENDBRANCH  12  30
BRANCH  13  32
HETATM   32  O51 SRY A1860     167.267 162.708 131.221  1.00 60.11    -0.390 OA
ATOM     33  H51 SRY A1860     167.985 163.233 130.887  1.00  0.00     0.210 HD
ENDBRANCH  13  32
ENDBRANCH   7   8
ENDBRANCH   1   7
BRANCH   2  34
HETATM   34  O13 SRY A1860     169.723 161.220 128.861  1.00 74.96    -0.345 OA
BRANCH  34  35
HETATM   35  C13 SRY A1860     170.442 162.375 129.215  1.00 82.06     0.294 C 
HETATM   36  C23 SRY A1860     171.540 162.745 128.233  1.00 88.41     0.271 C 
HETATM   37  C33 SRY A1860     170.873 163.063 126.901  1.00 94.07     0.185 C 
HETATM   38  C43 SRY A1860     169.938 164.190 127.190  1.00 94.04     0.180 C 
HETATM   39  C53 SRY A1860     168.973 163.857 128.296  1.00 90.34     0.179 C 
HETATM   40  O53 SRY A1860     169.558 163.436 129.443  1.00 82.16    -0.349 OA
BRANCH  36  41
HETATM   41  N23 SRY A1860     172.486 161.698 128.075  1.00 86.34    -0.068 N 
HETATM   42  CI3 SRY A1860     173.562 161.955 128.974  1.00 84.88     0.267 C 
ATOM     43 2H23 SRY A1860     172.078 160.771 128.196  1.00  0.00     0.277 HD
ATOM     44 1H23 SRY A1860     172.794 161.583 127.109  1.00  0.00     0.277 HD
ENDBRANCH  36  41
BRANCH  37  45
HETATM   45  O33 SRY A1860     171.812 163.381 125.931  1.00 97.34    -0.391 OA
ATOM     46  H33 SRY A1860     172.659 163.003 126.133  1.00  0.00     0.210 HD
ENDBRANCH  37  45
BRANCH  38  47
HETATM   47  O43 SRY A1860     169.208 164.528 126.069  1.00 95.04    -0.390 OA
ATOM     48  H43 SRY A1860     168.307 164.725 126.295  1.00  0.00     0.210 HD
ENDBRANCH  38  47
BRANCH  39  49
HETATM   49  C63 SRY A1860     168.253 165.118 128.647  1.00 97.11     0.198 C 
BRANCH  49  50
HETATM   50  O63 SRY A1860     168.975 166.253 128.145  1.00101.73    -0.398 OA
ATOM     51  H63 SRY A1860     169.055 166.913 128.823  1.00  0.00     0.209 HD
ENDBRANCH  49  50
ENDBRANCH  39  49
ENDBRANCH  34  35
ENDBRANCH   2  34
BRANCH   3  52
HETATM   52  O32 SRY A1860     171.202 158.958 128.673  1.00 83.76    -0.377 OA
ATOM     53  H32 SRY A1860     171.563 158.083 128.588  1.00  0.00     0.211 HD
ENDBRANCH   3  52
BRANCH   3  54
HETATM   54  CG2 SRY A1860     171.932 159.477 130.836  1.00 85.27     0.274 C 
HETATM   55  OG2 SRY A1860     172.070 158.735 131.785  1.00 91.11    -0.303 OA
ENDBRANCH   3  54
TORSDOF 16
ENDMDL
MODEL 8
REMARK VINA RESULT:    -6.668      3.175      6.925
REMARK INTER + INTRA:         -14.952
REMARK INTER:                 -11.725
REMARK INTRA:                  -3.227
REMARK UNBOUND:                -3.412
REMARK  16 active torsions:
REMARK  status: ('A' for Active; 'I' for Inactive)
REMARK    1  A    between atoms: C11_1  and  N11_2 
REMARK       I    between atoms: N11_2  and  CA1_4 
REMARK    2  A    between atoms: C21_9  and  O21_10 
REMARK    3  A    between atoms: C31_12  and  N31_13 
REMARK       I    between atoms: N31_13  and  CD1_15 
REMARK    4  A    between atoms: C41_20  and  O41_21 
REMARK    5  A    between atoms: O41_21  and  C12_28 
REMARK    6  A    between atoms: C51_22  and  O51_23 
REMARK    7  A    between atoms: C61_25  and  O61_26 
REMARK    8  A    between atoms: C22_29  and  O13_38 
REMARK    9  A    between atoms: C32_30  and  O32_31 
REMARK   10  A    between atoms: C32_30  and  CG2_33 
REMARK   11  A    between atoms: O13_38  and  C13_39 
REMARK   12  A    between atoms: C23_40  and  N23_41 
REMARK   13  A    between atoms: C33_45  and  O33_46 
REMARK   14  A    between atoms: C43_48  and  O43_49 
REMARK   15  A    between atoms: C53_51  and  C63_53 
REMARK   16  A    between atoms: C63_53  and  O63_54 
ROOT
HETATM    1  C12 SRY A1860     169.451 158.565 130.341  1.00 71.66     0.293 C 
HETATM    2  C22 SRY A1860     170.014 159.280 129.113  1.00 72.81     0.223 C 
HETATM    3  C32 SRY A1860     169.682 158.354 127.980  1.00 79.11     0.166 C 
HETATM    4  C42 SRY A1860     169.162 157.163 128.700  1.00 79.85     0.165 C 
HETATM    5  CH2 SRY A1860     168.228 156.321 127.865  1.00 83.53     0.043 C 
HETATM    6  O42 SRY A1860     168.513 157.627 129.866  1.00 76.91    -0.350 OA
ENDROOT
BRANCH   1   7
HETATM    7  O41 SRY A1860     170.462 157.919 131.083  1.00 69.52    -0.348 OA
BRANCH   7   8
HETATM    8  C41 SRY A1860     170.288 157.971 132.495  1.00 63.72     0.181 C 
HETATM    9  C31 SRY A1860     169.269 156.894 132.736  1.00 61.93     0.146 C 
HETATM   10  C21 SRY A1860     168.965 156.766 134.197  1.00 66.40     0.168 C 
HETATM   11  C11 SRY A1860     168.419 158.045 134.708  1.00 68.38     0.146 C 
HETATM   12  C61 SRY A1860     169.377 159.164 134.451  1.00 66.72     0.174 C 
HETATM   13  C51 SRY A1860     169.758 159.293 133.003  1.00 63.53     0.180 C 
BRANCH   9  14
HETATM   14  N31 SRY A1860     169.715 155.618 132.175  1.00 66.73    -0.355 N 
HETATM   15  CD1 SRY A1860     168.759 154.653 131.571  1.00 75.39     0.182 C 
HETATM   16  NE1 SRY A1860     167.362 154.988 131.558  1.00 81.29    -0.064 NA
HETATM   17  NF1 SRY A1860     169.147 153.476 131.044  1.00 77.61    -0.374 N 
ATOM     18 2HF1 SRY A1860     170.139 153.239 131.053  1.00  0.00     0.158 HD
ATOM     19 1HF1 SRY A1860     168.491 152.814 130.629  1.00  0.00     0.158 HD
ATOM     20  H31 SRY A1860     170.708 155.386 132.198  1.00  0.00     0.162 HD
ENDBRANCH   9  14
BRANCH  10  21
HETATM   21  O21 SRY A1860     168.020 155.780 134.427  1.00 71.96    -0.391 OA
ATOM     22  H21 SRY A1860     168.267 155.017 133.918  1.00  0.00     0.210 HD
ENDBRANCH  10  21
BRANCH  11  23
HETATM   23  N11 SRY A1860     168.320 158.025 136.133  1.00 76.44    -0.355 N 
HETATM   24  CA1 SRY A1860     167.049 157.818 136.803  1.00 85.70     0.182 C 
HETATM   25  NB1 SRY A1860     165.860 157.614 136.002  1.00 93.50    -0.064 NA
HETATM   26  NC1 SRY A1860     166.971 157.811 138.109  1.00 85.31    -0.374 N 
ATOM     27 2HC1 SRY A1860     167.808 157.956 138.673  1.00  0.00     0.158 HD
ATOM     28 1HC1 SRY A1860     166.078 157.666 138.580  1.00  0.00     0.158 HD
ATOM     29  H11 SRY A1860     169.163 158.158 136.693  1.00  0.00     0.162 HD
ENDBRANCH  11  23
BRANCH  12  30
HETATM   30  O61 SRY A1860     168.848 160.378 134.923  1.00 66.42    -0.391 OA
ATOM     31  H61 SRY A1860     167.932 160.273 135.149  1.00  0.00     0.210 HD
ENDBRANCH  12  30
BRANCH  13  32
HETATM   32  O51 SRY A1860     170.709 160.268 132.882  1.00 60.11    -0.390 OA
ATOM     33  H51 SRY A1860     170.310 161.129 132.924  1.00  0.00     0.210 HD
ENDBRANCH  13  32
ENDBRANCH   7   8
ENDBRANCH   1   7
BRANCH   2  34
HETATM   34  O13 SRY A1860     169.523 160.594 128.998  1.00 74.96    -0.345 OA
BRANCH  34  35
HETATM   35  C13 SRY A1860     170.544 161.369 129.577  1.00 82.06     0.294 C 
HETATM   36  C23 SRY A1860     171.302 162.233 128.584  1.00 88.41     0.271 C 
HETATM   37  C33 SRY A1860     170.310 163.227 127.992  1.00 94.07     0.185 C 
HETATM   38  C43 SRY A1860     169.781 163.995 129.158  1.00 94.04     0.180 C 
HETATM   39  C53 SRY A1860     169.194 163.094 130.212  1.00 90.34     0.179 C 
HETATM   40  O53 SRY A1860     170.028 162.116 130.642  1.00 82.16    -0.349 OA
BRANCH  36  41
HETATM   41  N23 SRY A1860     171.900 161.460 127.555  1.00 86.34    -0.068 N 
HETATM   42  CI3 SRY A1860     173.201 161.086 128.003  1.00 84.88     0.267 C 
ATOM     43 2H23 SRY A1860     171.331 160.661 127.274  1.00  0.00     0.277 HD
ATOM     44 1H23 SRY A1860     171.912 161.938 126.654  1.00  0.00     0.277 HD
ENDBRANCH  36  41
BRANCH  37  45
HETATM   45  O33 SRY A1860     170.914 164.039 127.046  1.00 97.34    -0.391 OA
ATOM     46  H33 SRY A1860     171.822 164.211 127.267  1.00  0.00     0.210 HD
ENDBRANCH  37  45
BRANCH  38  47
HETATM   47  O43 SRY A1860     168.806 164.887 128.763  1.00 95.04    -0.390 OA
ATOM     48  H43 SRY A1860     169.019 165.770 129.041  1.00  0.00     0.210 HD
ENDBRANCH  38  47
BRANCH  39  49
HETATM   49  C63 SRY A1860     168.912 163.943 131.409  1.00 97.11     0.198 C 
BRANCH  49  50
HETATM   50  O63 SRY A1860     169.848 165.030 131.473  1.00101.73    -0.398 OA
ATOM     51  H63 SRY A1860     169.644 165.591 132.211  1.00  0.00     0.209 HD
ENDBRANCH  49  50
ENDBRANCH  39  49
ENDBRANCH  34  35
ENDBRANCH   2  34
BRANCH   3  52
HETATM   52  O32 SRY A1860     168.671 158.818 127.137  1.00 83.76    -0.377 OA
ATOM     53  H32 SRY A1860     168.609 158.354 126.311  1.00  0.00     0.211 HD
ENDBRANCH   3  52
BRANCH   3  54
HETATM   54  CG2 SRY A1860     170.866 158.007 127.176  1.00 85.27     0.274 C 
HETATM   55  OG2 SRY A1860     171.160 158.732 126.249  1.00 91.11    -0.303 OA
ENDBRANCH   3  54
TORSDOF 16
ENDMDL
MODEL 9
REMARK VINA RESULT:    -6.586      3.320      7.454
REMARK INTER + INTRA:         -14.810
REMARK INTER:                 -11.497
REMARK INTRA:                  -3.313
REMARK UNBOUND:                -3.412
REMARK  16 active torsions:
REMARK  status: ('A' for Active; 'I' for Inactive)
REMARK    1  A    between atoms: C11_1  and  N11_2 
REMARK       I    between atoms: N11_2  and  CA1_4 
REMARK    2  A    between atoms: C21_9  and  O21_10 
REMARK    3  A    between atoms: C31_12  and  N31_13 
REMARK       I    between atoms: N31_13  and  CD1_15 
REMARK    4  A    between atoms: C41_20  and  O41_21 
REMARK    5  A    between atoms: O41_21  and  C12_28 
REMARK    6  A    between atoms: C51_22  and  O51_23 
REMARK    7  A    between atoms: C61_25  and  O61_26 
REMARK    8  A    between atoms: C22_29  and  O13_38 
REMARK    9  A    between atoms: C32_30  and  O32_31 
REMARK   10  A    between atoms: C32_30  and  CG2_33 
REMARK   11  A    between atoms: O13_38  and  C13_39 
REMARK   12  A    between atoms: C23_40  and  N23_41 
REMARK   13  A    between atoms: C33_45  and  O33_46 
REMARK   14  A    between atoms: C43_48  and  O43_49 
REMARK   15  A    between atoms: C53_51  and  C63_53 
REMARK   16  A    between atoms: C63_53  and  O63_54 
ROOT
HETATM    1  C12 SRY A1860     169.884 159.017 128.756  1.00 71.66     0.293 C 
HETATM    2  C22 SRY A1860     170.307 160.304 128.048  1.00 72.81     0.223 C 
HETATM    3  C32 SRY A1860     170.514 159.874 126.626  1.00 79.11     0.166 C 
HETATM    4  C42 SRY A1860     170.381 158.398 126.729  1.00 79.85     0.165 C 
HETATM    5  CH2 SRY A1860     169.963 157.745 125.434  1.00 83.53     0.043 C 
HETATM    6  O42 SRY A1860     169.446 158.131 127.752  1.00 76.91    -0.350 OA
ENDROOT
BRANCH   1   7
HETATM    7  O41 SRY A1860     170.945 158.446 129.489  1.00 69.52    -0.348 OA
BRANCH   7   8
HETATM    8  C41 SRY A1860     170.775 158.478 130.903  1.00 63.72     0.181 C 
HETATM    9  C31 SRY A1860     169.589 157.580 131.107  1.00 61.93     0.146 C 
HETATM   10  C21 SRY A1860     169.261 157.455 132.563  1.00 66.40     0.168 C 
HETATM   11  C11 SRY A1860     168.935 158.789 133.119  1.00 68.38     0.146 C 
HETATM   12  C61 SRY A1860     170.068 159.739 132.900  1.00 66.72     0.174 C 
HETATM   13  C51 SRY A1860     170.473 159.852 131.457  1.00 63.53     0.180 C 
BRANCH   9  14
HETATM   14  N31 SRY A1860     169.817 156.268 130.501  1.00 66.73    -0.355 N 
HETATM   15  CD1 SRY A1860     168.733 155.531 129.801  1.00 75.39     0.182 C 
HETATM   16  NE1 SRY A1860     167.427 156.129 129.738  1.00 81.29    -0.064 NA
HETATM   17  NF1 SRY A1860     168.920 154.325 129.231  1.00 77.61    -0.374 N 
ATOM     18 2HF1 SRY A1860     169.846 153.901 129.276  1.00  0.00     0.158 HD
ATOM     19 1HF1 SRY A1860     168.175 153.819 128.750  1.00  0.00     0.158 HD
ATOM     20  H31 SRY A1860     170.744 155.848 130.561  1.00  0.00     0.162 HD
ENDBRANCH   9  14
BRANCH  10  21
HETATM   21  O21 SRY A1860     168.162 156.634 132.759  1.00 71.96    -0.391 OA
ATOM     22  H21 SRY A1860     167.435 157.001 132.272  1.00  0.00     0.210 HD
ENDBRANCH  10  21
BRANCH  11  23
HETATM   23  N11 SRY A1860     168.828 158.736 134.543  1.00 76.44    -0.355 N 
HETATM   24  CA1 SRY A1860     167.749 159.404 135.248  1.00 85.70     0.182 C 
HETATM   25  NB1 SRY A1860     166.754 160.127 134.483  1.00 93.50    -0.064 NA
HETATM   26  NC1 SRY A1860     167.668 159.357 136.553  1.00 85.31    -0.374 N 
ATOM     27 2HC1 SRY A1860     168.369 158.848 137.091  1.00  0.00     0.158 HD
ATOM     28 1HC1 SRY A1860     166.910 159.827 137.048  1.00  0.00     0.158 HD
ATOM     29  H11 SRY A1860     169.525 158.216 135.076  1.00  0.00     0.162 HD
ENDBRANCH  11  23
BRANCH  12  30
HETATM   30  O61 SRY A1860     169.749 161.007 133.414  1.00 66.42    -0.391 OA
ATOM     31  H61 SRY A1860     170.130 161.688 132.873  1.00  0.00     0.210 HD
ENDBRANCH  12  30
BRANCH  13  32
HETATM   32  O51 SRY A1860     171.574 160.657 131.369  1.00 60.11    -0.390 OA
ATOM     33  H51 SRY A1860     171.353 161.479 130.946  1.00  0.00     0.210 HD
ENDBRANCH  13  32
ENDBRANCH   7   8
ENDBRANCH   1   7
BRANCH   2  34
HETATM   34  O13 SRY A1860     169.382 161.344 128.249  1.00 74.96    -0.345 OA
BRANCH  34  35
HETATM   35  C13 SRY A1860     170.201 162.463 128.486  1.00 82.06     0.294 C 
HETATM   36  C23 SRY A1860     169.969 163.613 127.522  1.00 88.41     0.271 C 
HETATM   37  C33 SRY A1860     168.538 164.096 127.723  1.00 94.07     0.185 C 
HETATM   38  C43 SRY A1860     168.460 164.504 129.156  1.00 94.04     0.180 C 
HETATM   39  C53 SRY A1860     168.869 163.393 130.085  1.00 90.34     0.179 C 
HETATM   40  O53 SRY A1860     170.087 162.861 129.822  1.00 82.16    -0.349 OA
BRANCH  36  41
HETATM   41  N23 SRY A1860     170.175 163.226 126.172  1.00 86.34    -0.068 N 
HETATM   42  CI3 SRY A1860     171.236 164.025 125.655  1.00 84.88     0.267 C 
ATOM     43 2H23 SRY A1860     170.342 162.225 126.065  1.00  0.00     0.277 HD
ATOM     44 1H23 SRY A1860     169.327 163.279 125.608  1.00  0.00     0.277 HD
ENDBRANCH  36  41
BRANCH  37  45
HETATM   45  O33 SRY A1860     168.230 165.132 126.854  1.00 97.34    -0.391 OA
ATOM     46  H33 SRY A1860     168.837 165.856 126.949  1.00  0.00     0.210 HD
ENDBRANCH  37  45
BRANCH  38  47
HETATM   47  O43 SRY A1860     167.180 164.896 129.490  1.00 95.04    -0.390 OA
ATOM     48  H43 SRY A1860     166.649 165.027 128.714  1.00  0.00     0.210 HD
ENDBRANCH  38  47
BRANCH  39  49
HETATM   49  C63 SRY A1860     168.969 163.980 131.456  1.00 97.11     0.198 C 
BRANCH  49  50
HETATM   50  O63 SRY A1860     169.815 165.140 131.433  1.00101.73    -0.398 OA
ATOM     51  H63 SRY A1860     170.724 164.878 131.359  1.00  0.00     0.209 HD
ENDBRANCH  49  50
ENDBRANCH  39  49
ENDBRANCH  34  35
ENDBRANCH   2  34
BRANCH   3  52
HETATM   52  O32 SRY A1860     169.536 160.330 125.741  1.00 83.76    -0.377 OA
ATOM     53  H32 SRY A1860     169.653 161.230 125.460  1.00  0.00     0.211 HD
ENDBRANCH   3  52
BRANCH   3  54
HETATM   54  CG2 SRY A1860     171.845 160.248 126.116  1.00 85.27     0.274 C 
HETATM   55  OG2 SRY A1860     171.918 160.718 125.000  1.00 91.11    -0.303 OA
ENDBRANCH   3  54
TORSDOF 16
ENDMDL
